<?xml version="1.0" encoding="UTF-8"?>

<!-- generated on 2023-10-25 13:49:34 by Eclipse SUMO netedit Version 1.14.1
<configuration xmlns:xsi="http://www.w3.org/2001/XMLSchema-instance" xsi:noNamespaceSchemaLocation="http://sumo.dlr.de/xsd/netconvertConfiguration.xsd">

    <output>
        <output-file value="C:\Users\ravip\Sumo\sheshang\final.net.xml"/>
    </output>

    <processing>
        <offset.disable-normalization value="true"/>
    </processing>

    <junctions>
        <no-turnarounds value="true"/>
    </junctions>

</configuration>
-->

<net version="1.9" junctionCornerDetail="5" limitTurnSpeed="5.50" xmlns:xsi="http://www.w3.org/2001/XMLSchema-instance" xsi:noNamespaceSchemaLocation="http://sumo.dlr.de/xsd/net_file.xsd">

    <location netOffset="0.00,0.00" convBoundary="-900.00,-900.00,3400.00,1200.00" origBoundary="10000000000.00,10000000000.00,-10000000000.00,-10000000000.00" projParameter="!"/>

    <edge id=":J1_0" function="internal">
        <lane id=":J1_0_0" index="0" speed="6.51" length="9.03" shape="92.00,513.60 91.65,511.15 90.60,509.40 88.85,508.35 86.40,508.00"/>
    </edge>
    <edge id=":J1_1" function="internal">
        <lane id=":J1_1_0" index="0" speed="13.89" length="27.45" shape="92.00,513.60 92.50,505.50 93.60,500.00 94.70,494.50 95.20,486.40"/>
        <lane id=":J1_1_1" index="1" speed="13.89" length="27.45" shape="95.20,513.60 95.70,505.50 96.80,500.00 97.90,494.50 98.40,486.40"/>
    </edge>
    <edge id=":J1_3" function="internal">
        <lane id=":J1_3_0" index="0" speed="13.89" length="27.20" shape="95.20,513.60 95.20,486.40"/>
        <lane id=":J1_3_1" index="1" speed="13.89" length="27.20" shape="98.40,513.60 98.40,486.40"/>
    </edge>
    <edge id=":J1_5" function="internal">
        <lane id=":J1_5_0" index="0" speed="10.36" length="5.01" shape="98.40,513.60 99.11,508.64"/>
    </edge>
    <edge id=":J1_23" function="internal">
        <lane id=":J1_23_0" index="0" speed="10.36" length="19.50" shape="99.11,508.64 99.35,506.95 102.20,502.20 106.95,499.35 113.60,498.40"/>
    </edge>
    <edge id=":J1_6" function="internal">
        <lane id=":J1_6_0" index="0" speed="6.51" length="9.03" shape="113.60,508.00 111.15,508.35 109.40,509.40 108.35,511.15 108.00,513.60"/>
    </edge>
    <edge id=":J1_7" function="internal">
        <lane id=":J1_7_0" index="0" speed="13.89" length="27.45" shape="113.60,508.00 105.50,507.50 100.00,506.40 94.50,505.30 86.40,504.80"/>
        <lane id=":J1_7_1" index="1" speed="13.89" length="27.45" shape="113.60,504.80 105.50,504.30 100.00,503.20 94.50,502.10 86.40,501.60"/>
    </edge>
    <edge id=":J1_9" function="internal">
        <lane id=":J1_9_0" index="0" speed="11.36" length="13.36" shape="113.60,504.80 105.55,503.65 101.06,500.96"/>
    </edge>
    <edge id=":J1_10" function="internal">
        <lane id=":J1_10_0" index="0" speed="10.36" length="5.01" shape="113.60,501.60 108.64,500.89"/>
    </edge>
    <edge id=":J1_24" function="internal">
        <lane id=":J1_24_0" index="0" speed="11.36" length="16.31" shape="101.06,500.96 99.80,500.20 96.35,494.45 95.20,486.40"/>
    </edge>
    <edge id=":J1_25" function="internal">
        <lane id=":J1_25_0" index="0" speed="10.36" length="19.50" shape="108.64,500.89 106.95,500.65 102.20,497.80 99.35,493.05 98.40,486.40"/>
    </edge>
    <edge id=":J1_11" function="internal">
        <lane id=":J1_11_0" index="0" speed="6.51" length="9.03" shape="108.00,486.40 108.35,488.85 109.40,490.60 111.15,491.65 113.60,492.00"/>
    </edge>
    <edge id=":J1_12" function="internal">
        <lane id=":J1_12_0" index="0" speed="13.89" length="27.20" shape="108.00,486.40 108.00,513.60"/>
        <lane id=":J1_12_1" index="1" speed="13.89" length="27.20" shape="104.80,486.40 104.80,513.60"/>
        <lane id=":J1_12_2" index="2" speed="13.89" length="27.20" shape="101.60,486.40 101.60,513.60"/>
    </edge>
    <edge id=":J1_15" function="internal">
        <lane id=":J1_15_0" index="0" speed="10.36" length="5.01" shape="101.60,486.40 100.89,491.36"/>
    </edge>
    <edge id=":J1_16" function="internal">
        <lane id=":J1_16_0" index="0" speed="3.24" length="1.60" shape="101.60,486.40 100.00,486.40"/>
    </edge>
    <edge id=":J1_26" function="internal">
        <lane id=":J1_26_0" index="0" speed="10.36" length="19.50" shape="100.89,491.36 100.65,493.05 97.80,497.80 93.05,500.65 86.40,501.60"/>
    </edge>
    <edge id=":J1_27" function="internal">
        <lane id=":J1_27_0" index="0" speed="3.24" length="1.60" shape="100.00,486.40 98.40,486.40"/>
    </edge>
    <edge id=":J1_17" function="internal">
        <lane id=":J1_17_0" index="0" speed="6.51" length="9.03" shape="86.40,492.00 88.85,491.65 90.60,490.60 91.65,488.85 92.00,486.40"/>
    </edge>
    <edge id=":J1_18" function="internal">
        <lane id=":J1_18_0" index="0" speed="6.51" length="9.03" shape="86.40,492.00 88.85,491.65 90.60,490.60 91.65,488.85 92.00,486.40"/>
        <lane id=":J1_18_1" index="1" speed="8.00" length="14.19" shape="86.40,495.20 90.25,494.65 93.00,493.00 94.65,490.25 95.20,486.40"/>
    </edge>
    <edge id=":J1_20" function="internal">
        <lane id=":J1_20_0" index="0" speed="13.89" length="27.20" shape="86.40,495.20 113.60,495.20"/>
        <lane id=":J1_20_1" index="1" speed="13.89" length="27.20" shape="86.40,498.40 113.60,498.40"/>
    </edge>
    <edge id=":J1_22" function="internal">
        <lane id=":J1_22_0" index="0" speed="10.36" length="6.91" shape="86.40,498.40 93.05,499.35 93.22,499.45"/>
    </edge>
    <edge id=":J1_28" function="internal">
        <lane id=":J1_28_0" index="0" speed="10.36" length="17.60" shape="93.22,499.45 97.80,502.20 100.65,506.95 101.60,513.60"/>
    </edge>
    <edge id=":J10_0" function="internal">
        <lane id=":J10_0_0" index="0" speed="6.51" length="9.03" shape="2292.00,513.60 2291.65,511.15 2290.60,509.40 2288.85,508.35 2286.40,508.00"/>
    </edge>
    <edge id=":J10_1" function="internal">
        <lane id=":J10_1_0" index="0" speed="13.89" length="27.20" shape="2292.00,513.60 2292.00,486.40"/>
        <lane id=":J10_1_1" index="1" speed="13.89" length="27.20" shape="2295.20,513.60 2295.20,486.40"/>
        <lane id=":J10_1_2" index="2" speed="13.89" length="27.20" shape="2298.40,513.60 2298.40,486.40"/>
    </edge>
    <edge id=":J10_4" function="internal">
        <lane id=":J10_4_0" index="0" speed="13.89" length="27.20" shape="2308.00,486.40 2308.00,513.60"/>
        <lane id=":J10_4_1" index="1" speed="13.89" length="27.20" shape="2304.80,486.40 2304.80,513.60"/>
        <lane id=":J10_4_2" index="2" speed="13.89" length="27.20" shape="2301.60,486.40 2301.60,513.60"/>
    </edge>
    <edge id=":J10_7" function="internal">
        <lane id=":J10_7_0" index="0" speed="10.88" length="6.03" shape="2301.60,486.40 2300.89,492.38"/>
        <lane id=":J10_7_1" index="1" speed="10.36" length="5.01" shape="2301.60,486.40 2300.89,491.36"/>
    </edge>
    <edge id=":J10_12" function="internal">
        <lane id=":J10_12_0" index="0" speed="10.88" length="21.12" shape="2300.89,492.38 2300.65,494.45 2297.80,500.20 2293.05,503.65 2286.40,504.80"/>
    </edge>
    <edge id=":J10_13" function="internal">
        <lane id=":J10_13_0" index="0" speed="10.36" length="19.50" shape="2300.89,491.36 2300.65,493.05 2297.80,497.80 2293.05,500.65 2286.40,501.60"/>
    </edge>
    <edge id=":J10_9" function="internal">
        <lane id=":J10_9_0" index="0" speed="6.51" length="9.03" shape="2286.40,492.00 2288.85,491.65 2290.60,490.60 2291.65,488.85 2292.00,486.40"/>
    </edge>
    <edge id=":J10_10" function="internal">
        <lane id=":J10_10_0" index="0" speed="11.36" length="29.67" shape="2286.40,495.20 2294.45,496.35 2300.20,499.80 2303.65,505.55 2304.80,513.60"/>
        <lane id=":J10_10_1" index="1" speed="10.36" length="24.51" shape="2286.40,498.40 2293.05,499.35 2297.80,502.20 2300.65,506.95 2301.60,513.60"/>
    </edge>
    <edge id=":J2_0" function="internal">
        <lane id=":J2_0_0" index="0" speed="6.51" length="9.03" shape="1392.00,513.60 1391.65,511.15 1390.60,509.40 1388.85,508.35 1386.40,508.00"/>
    </edge>
    <edge id=":J2_1" function="internal">
        <lane id=":J2_1_0" index="0" speed="13.89" length="27.20" shape="1392.00,513.60 1392.00,486.40"/>
        <lane id=":J2_1_1" index="1" speed="13.89" length="27.20" shape="1395.20,513.60 1395.20,486.40"/>
        <lane id=":J2_1_2" index="2" speed="13.89" length="27.20" shape="1398.40,513.60 1398.40,486.40"/>
    </edge>
    <edge id=":J2_4" function="internal">
        <lane id=":J2_4_0" index="0" speed="10.36" length="5.01" shape="1398.40,513.60 1399.11,508.64"/>
    </edge>
    <edge id=":J2_20" function="internal">
        <lane id=":J2_20_0" index="0" speed="10.36" length="19.50" shape="1399.11,508.64 1399.35,506.95 1402.20,502.20 1406.95,499.35 1413.60,498.40"/>
    </edge>
    <edge id=":J2_5" function="internal">
        <lane id=":J2_5_0" index="0" speed="6.51" length="9.03" shape="1413.60,508.00 1411.15,508.35 1409.40,509.40 1408.35,511.15 1408.00,513.60"/>
    </edge>
    <edge id=":J2_6" function="internal">
        <lane id=":J2_6_0" index="0" speed="13.89" length="27.20" shape="1413.60,508.00 1386.40,508.00"/>
        <lane id=":J2_6_1" index="1" speed="13.89" length="27.20" shape="1413.60,504.80 1386.40,504.80"/>
        <lane id=":J2_6_2" index="2" speed="13.89" length="27.20" shape="1413.60,501.60 1386.40,501.60"/>
    </edge>
    <edge id=":J2_9" function="internal">
        <lane id=":J2_9_0" index="0" speed="10.36" length="5.01" shape="1413.60,501.60 1408.64,500.89"/>
    </edge>
    <edge id=":J2_21" function="internal">
        <lane id=":J2_21_0" index="0" speed="10.36" length="19.50" shape="1408.64,500.89 1406.95,500.65 1402.20,497.80 1399.35,493.05 1398.40,486.40"/>
    </edge>
    <edge id=":J2_10" function="internal">
        <lane id=":J2_10_0" index="0" speed="6.51" length="9.03" shape="1408.00,486.40 1408.35,488.85 1409.40,490.60 1411.15,491.65 1413.60,492.00"/>
    </edge>
    <edge id=":J2_11" function="internal">
        <lane id=":J2_11_0" index="0" speed="13.89" length="27.20" shape="1408.00,486.40 1408.00,513.60"/>
        <lane id=":J2_11_1" index="1" speed="13.89" length="27.20" shape="1404.80,486.40 1404.80,513.60"/>
        <lane id=":J2_11_2" index="2" speed="13.89" length="27.20" shape="1401.60,486.40 1401.60,513.60"/>
    </edge>
    <edge id=":J2_14" function="internal">
        <lane id=":J2_14_0" index="0" speed="10.36" length="5.01" shape="1401.60,486.40 1400.89,491.36"/>
    </edge>
    <edge id=":J2_22" function="internal">
        <lane id=":J2_22_0" index="0" speed="10.36" length="19.50" shape="1400.89,491.36 1400.65,493.05 1397.80,497.80 1393.05,500.65 1386.40,501.60"/>
    </edge>
    <edge id=":J2_15" function="internal">
        <lane id=":J2_15_0" index="0" speed="6.51" length="9.03" shape="1386.40,492.00 1388.85,491.65 1390.60,490.60 1391.65,488.85 1392.00,486.40"/>
    </edge>
    <edge id=":J2_16" function="internal">
        <lane id=":J2_16_0" index="0" speed="13.89" length="27.20" shape="1386.40,492.00 1413.60,492.00"/>
        <lane id=":J2_16_1" index="1" speed="13.89" length="27.20" shape="1386.40,495.20 1413.60,495.20"/>
        <lane id=":J2_16_2" index="2" speed="13.89" length="27.20" shape="1386.40,498.40 1413.60,498.40"/>
    </edge>
    <edge id=":J2_19" function="internal">
        <lane id=":J2_19_0" index="0" speed="10.36" length="5.01" shape="1386.40,498.40 1391.36,499.11"/>
    </edge>
    <edge id=":J2_23" function="internal">
        <lane id=":J2_23_0" index="0" speed="10.36" length="19.50" shape="1391.36,499.11 1393.05,499.35 1397.80,502.20 1400.65,506.95 1401.60,513.60"/>
    </edge>
    <edge id=":J3_0" function="internal">
        <lane id=":J3_0_0" index="0" speed="6.51" length="9.03" shape="1392.00,-386.40 1391.65,-388.85 1390.60,-390.60 1388.85,-391.65 1386.40,-392.00"/>
    </edge>
    <edge id=":J3_1" function="internal">
        <lane id=":J3_1_0" index="0" speed="13.89" length="27.20" shape="1392.00,-386.40 1392.00,-413.60"/>
        <lane id=":J3_1_1" index="1" speed="13.89" length="27.20" shape="1395.20,-386.40 1395.20,-413.60"/>
        <lane id=":J3_1_2" index="2" speed="13.89" length="27.20" shape="1398.40,-386.40 1398.40,-413.60"/>
    </edge>
    <edge id=":J3_4" function="internal">
        <lane id=":J3_4_0" index="0" speed="10.36" length="5.01" shape="1398.40,-386.40 1399.11,-391.36"/>
    </edge>
    <edge id=":J3_20" function="internal">
        <lane id=":J3_20_0" index="0" speed="10.36" length="19.50" shape="1399.11,-391.36 1399.35,-393.05 1402.20,-397.80 1406.95,-400.65 1413.60,-401.60"/>
    </edge>
    <edge id=":J3_5" function="internal">
        <lane id=":J3_5_0" index="0" speed="6.51" length="9.03" shape="1413.60,-392.00 1411.15,-391.65 1409.40,-390.60 1408.35,-388.85 1408.00,-386.40"/>
    </edge>
    <edge id=":J3_6" function="internal">
        <lane id=":J3_6_0" index="0" speed="13.89" length="27.20" shape="1413.60,-392.00 1386.40,-392.00"/>
        <lane id=":J3_6_1" index="1" speed="13.89" length="27.20" shape="1413.60,-395.20 1386.40,-395.20"/>
        <lane id=":J3_6_2" index="2" speed="13.89" length="27.20" shape="1413.60,-398.40 1386.40,-398.40"/>
    </edge>
    <edge id=":J3_9" function="internal">
        <lane id=":J3_9_0" index="0" speed="10.36" length="5.01" shape="1413.60,-398.40 1408.64,-399.11"/>
    </edge>
    <edge id=":J3_21" function="internal">
        <lane id=":J3_21_0" index="0" speed="10.36" length="19.50" shape="1408.64,-399.11 1406.95,-399.35 1402.20,-402.20 1399.35,-406.95 1398.40,-413.60"/>
    </edge>
    <edge id=":J3_10" function="internal">
        <lane id=":J3_10_0" index="0" speed="6.51" length="9.03" shape="1408.00,-413.60 1408.35,-411.15 1409.40,-409.40 1411.15,-408.35 1413.60,-408.00"/>
    </edge>
    <edge id=":J3_11" function="internal">
        <lane id=":J3_11_0" index="0" speed="13.89" length="27.20" shape="1408.00,-413.60 1408.00,-386.40"/>
        <lane id=":J3_11_1" index="1" speed="13.89" length="27.20" shape="1404.80,-413.60 1404.80,-386.40"/>
        <lane id=":J3_11_2" index="2" speed="13.89" length="27.20" shape="1401.60,-413.60 1401.60,-386.40"/>
    </edge>
    <edge id=":J3_14" function="internal">
        <lane id=":J3_14_0" index="0" speed="10.36" length="5.01" shape="1401.60,-413.60 1400.89,-408.64"/>
    </edge>
    <edge id=":J3_22" function="internal">
        <lane id=":J3_22_0" index="0" speed="10.36" length="19.50" shape="1400.89,-408.64 1400.65,-406.95 1397.80,-402.20 1393.05,-399.35 1386.40,-398.40"/>
    </edge>
    <edge id=":J3_15" function="internal">
        <lane id=":J3_15_0" index="0" speed="6.51" length="9.03" shape="1386.40,-408.00 1388.85,-408.35 1390.60,-409.40 1391.65,-411.15 1392.00,-413.60"/>
    </edge>
    <edge id=":J3_16" function="internal">
        <lane id=":J3_16_0" index="0" speed="13.89" length="27.20" shape="1386.40,-408.00 1413.60,-408.00"/>
        <lane id=":J3_16_1" index="1" speed="13.89" length="27.20" shape="1386.40,-404.80 1413.60,-404.80"/>
        <lane id=":J3_16_2" index="2" speed="13.89" length="27.20" shape="1386.40,-401.60 1413.60,-401.60"/>
    </edge>
    <edge id=":J3_19" function="internal">
        <lane id=":J3_19_0" index="0" speed="10.36" length="5.01" shape="1386.40,-401.60 1391.36,-400.89"/>
    </edge>
    <edge id=":J3_23" function="internal">
        <lane id=":J3_23_0" index="0" speed="10.36" length="19.50" shape="1391.36,-400.89 1393.05,-400.65 1397.80,-397.80 1400.65,-393.05 1401.60,-386.40"/>
    </edge>
    <edge id=":J4_0" function="internal">
        <lane id=":J4_0_0" index="0" speed="6.51" length="9.03" shape="92.00,-386.40 91.65,-388.85 90.60,-390.60 88.85,-391.65 86.40,-392.00"/>
        <lane id=":J4_0_1" index="1" speed="8.00" length="14.19" shape="95.20,-386.40 94.65,-390.25 93.00,-393.00 90.25,-394.65 86.40,-395.20"/>
    </edge>
    <edge id=":J4_2" function="internal">
        <lane id=":J4_2_0" index="0" speed="11.36" length="13.36" shape="95.20,-386.40 96.35,-394.45 99.04,-398.94"/>
    </edge>
    <edge id=":J4_3" function="internal">
        <lane id=":J4_3_0" index="0" speed="10.36" length="5.01" shape="98.40,-386.40 99.11,-391.36"/>
    </edge>
    <edge id=":J4_18" function="internal">
        <lane id=":J4_18_0" index="0" speed="11.36" length="16.31" shape="99.04,-398.94 99.80,-400.20 105.55,-403.65 113.60,-404.80"/>
    </edge>
    <edge id=":J4_19" function="internal">
        <lane id=":J4_19_0" index="0" speed="10.36" length="19.50" shape="99.11,-391.36 99.35,-393.05 102.20,-397.80 106.95,-400.65 113.60,-401.60"/>
    </edge>
    <edge id=":J4_4" function="internal">
        <lane id=":J4_4_0" index="0" speed="6.51" length="9.03" shape="113.60,-392.00 111.15,-391.65 109.40,-390.60 108.35,-388.85 108.00,-386.40"/>
    </edge>
    <edge id=":J4_5" function="internal">
        <lane id=":J4_5_0" index="0" speed="13.89" length="27.20" shape="113.60,-392.00 86.40,-392.00"/>
        <lane id=":J4_5_1" index="1" speed="13.89" length="27.20" shape="113.60,-395.20 86.40,-395.20"/>
        <lane id=":J4_5_2" index="2" speed="13.89" length="27.20" shape="113.60,-398.40 86.40,-398.40"/>
    </edge>
    <edge id=":J4_8" function="internal">
        <lane id=":J4_8_0" index="0" speed="3.24" length="3.20" shape="113.60,-398.40 113.60,-401.60"/>
    </edge>
    <edge id=":J4_9" function="internal">
        <lane id=":J4_9_0" index="0" speed="6.51" length="9.03" shape="108.00,-413.60 108.35,-411.15 109.40,-409.40 111.15,-408.35 113.60,-408.00"/>
    </edge>
    <edge id=":J4_10" function="internal">
        <lane id=":J4_10_0" index="0" speed="6.51" length="9.03" shape="108.00,-413.60 108.35,-411.15 109.40,-409.40 111.15,-408.35 113.60,-408.00"/>
    </edge>
    <edge id=":J4_11" function="internal">
        <lane id=":J4_11_0" index="0" speed="13.89" length="27.20" shape="108.00,-413.60 108.00,-386.40"/>
        <lane id=":J4_11_1" index="1" speed="13.89" length="27.20" shape="104.80,-413.60 104.80,-386.40"/>
        <lane id=":J4_11_2" index="2" speed="13.89" length="27.20" shape="101.60,-413.60 101.60,-386.40"/>
    </edge>
    <edge id=":J4_14" function="internal">
        <lane id=":J4_14_0" index="0" speed="10.36" length="24.51" shape="101.60,-413.60 100.65,-406.95 97.80,-402.20 93.05,-399.35 86.40,-398.40"/>
    </edge>
    <edge id=":J4_15" function="internal">
        <lane id=":J4_15_0" index="0" speed="13.89" length="27.45" shape="86.40,-408.00 94.50,-407.50 100.00,-406.40 105.50,-405.30 113.60,-404.80"/>
    </edge>
    <edge id=":J4_16" function="internal">
        <lane id=":J4_16_0" index="0" speed="13.89" length="27.20" shape="86.40,-404.80 113.60,-404.80"/>
    </edge>
    <edge id=":J4_17" function="internal">
        <lane id=":J4_17_0" index="0" speed="10.36" length="5.01" shape="86.40,-401.60 91.36,-400.89"/>
    </edge>
    <edge id=":J4_20" function="internal">
        <lane id=":J4_20_0" index="0" speed="10.36" length="19.50" shape="91.36,-400.89 93.05,-400.65 97.80,-397.80 100.65,-393.05 101.60,-386.40"/>
    </edge>
    <edge id=":J5_0" function="internal">
        <lane id=":J5_0_0" index="0" speed="11.12" length="28.38" shape="-890.40,508.00 -898.10,506.90 -903.60,503.60 -906.90,498.10 -908.00,490.40"/>
        <lane id=":J5_0_1" index="1" speed="10.10" length="23.22" shape="-890.40,504.80 -896.70,503.90 -901.20,501.20 -903.90,496.70 -904.80,490.40"/>
        <lane id=":J5_0_2" index="2" speed="8.96" length="18.06" shape="-890.40,501.60 -895.30,500.90 -898.80,498.80 -900.90,495.30 -901.60,490.40"/>
    </edge>
    <edge id=":J5_3" function="internal">
        <lane id=":J5_3_0" index="0" speed="3.90" length="2.58" shape="-892.00,490.40 -891.90,491.10 -891.60,491.60 -891.10,491.90 -890.40,492.00"/>
        <lane id=":J5_3_1" index="1" speed="6.08" length="7.74" shape="-895.20,490.40 -894.90,492.50 -894.00,494.00 -892.50,494.90 -890.40,495.20"/>
        <lane id=":J5_3_2" index="2" speed="7.66" length="12.90" shape="-898.40,490.40 -897.90,493.90 -896.40,496.40 -893.90,497.90 -890.40,498.40"/>
    </edge>
    <edge id=":J6_0" function="internal">
        <lane id=":J6_0_0" index="0" speed="11.12" length="28.38" shape="-908.00,-390.40 -906.90,-398.10 -903.60,-403.60 -898.10,-406.90 -890.40,-408.00"/>
        <lane id=":J6_0_1" index="1" speed="10.10" length="23.22" shape="-904.80,-390.40 -903.90,-396.70 -901.20,-401.20 -896.70,-403.90 -890.40,-404.80"/>
        <lane id=":J6_0_2" index="2" speed="8.96" length="18.06" shape="-901.60,-390.40 -900.90,-395.30 -898.80,-398.80 -895.30,-400.90 -890.40,-401.60"/>
    </edge>
    <edge id=":J6_3" function="internal">
        <lane id=":J6_3_0" index="0" speed="3.90" length="2.58" shape="-890.40,-392.00 -891.10,-391.90 -891.60,-391.60 -891.90,-391.10 -892.00,-390.40"/>
        <lane id=":J6_3_1" index="1" speed="6.08" length="7.74" shape="-890.40,-395.20 -892.50,-394.90 -894.00,-394.00 -894.90,-392.50 -895.20,-390.40"/>
        <lane id=":J6_3_2" index="2" speed="7.66" length="12.90" shape="-890.40,-398.40 -893.90,-397.90 -896.40,-396.40 -897.90,-393.90 -898.40,-390.40"/>
    </edge>
    <edge id=":J9_0" function="internal">
        <lane id=":J9_0_0" index="0" speed="6.51" length="9.03" shape="2292.00,-386.40 2291.65,-388.85 2290.60,-390.60 2288.85,-391.65 2286.40,-392.00"/>
    </edge>
    <edge id=":J9_1" function="internal">
        <lane id=":J9_1_0" index="0" speed="13.89" length="27.20" shape="2292.00,-386.40 2292.00,-413.60"/>
        <lane id=":J9_1_1" index="1" speed="13.89" length="27.20" shape="2295.20,-386.40 2295.20,-413.60"/>
        <lane id=":J9_1_2" index="2" speed="13.89" length="27.20" shape="2298.40,-386.40 2298.40,-413.60"/>
    </edge>
    <edge id=":J9_4" function="internal">
        <lane id=":J9_4_0" index="0" speed="6.51" length="9.03" shape="2313.60,-392.00 2311.15,-391.65 2309.40,-390.60 2308.35,-388.85 2308.00,-386.40"/>
    </edge>
    <edge id=":J9_5" function="internal">
        <lane id=":J9_5_0" index="0" speed="13.89" length="27.20" shape="2313.60,-392.00 2286.40,-392.00"/>
        <lane id=":J9_5_1" index="1" speed="13.89" length="27.20" shape="2313.60,-395.20 2286.40,-395.20"/>
        <lane id=":J9_5_2" index="2" speed="13.89" length="27.20" shape="2313.60,-398.40 2286.40,-398.40"/>
    </edge>
    <edge id=":J9_8" function="internal">
        <lane id=":J9_8_0" index="0" speed="10.36" length="24.51" shape="2313.60,-398.40 2306.95,-399.35 2302.20,-402.20 2299.35,-406.95 2298.40,-413.60"/>
    </edge>
    <edge id=":J9_9" function="internal">
        <lane id=":J9_9_0" index="0" speed="13.89" length="27.20" shape="2308.00,-413.60 2308.00,-386.40"/>
        <lane id=":J9_9_1" index="1" speed="13.89" length="27.20" shape="2304.80,-413.60 2304.80,-386.40"/>
        <lane id=":J9_9_2" index="2" speed="13.89" length="27.20" shape="2301.60,-413.60 2301.60,-386.40"/>
    </edge>
    <edge id=":J9_12" function="internal">
        <lane id=":J9_12_0" index="0" speed="10.36" length="5.01" shape="2301.60,-413.60 2300.89,-408.64"/>
    </edge>
    <edge id=":J9_16" function="internal">
        <lane id=":J9_16_0" index="0" speed="10.36" length="19.50" shape="2300.89,-408.64 2300.65,-406.95 2297.80,-402.20 2293.05,-399.35 2286.40,-398.40"/>
    </edge>
    <edge id=":J9_13" function="internal">
        <lane id=":J9_13_0" index="0" speed="6.51" length="9.03" shape="2286.40,-408.00 2288.85,-408.35 2290.60,-409.40 2291.65,-411.15 2292.00,-413.60"/>
    </edge>
    <edge id=":J9_14" function="internal">
        <lane id=":J9_14_0" index="0" speed="11.36" length="29.67" shape="2286.40,-404.80 2294.45,-403.65 2300.20,-400.20 2303.65,-394.45 2304.80,-386.40"/>
        <lane id=":J9_14_1" index="1" speed="10.36" length="24.51" shape="2286.40,-401.60 2293.05,-400.65 2297.80,-397.80 2300.65,-393.05 2301.60,-386.40"/>
    </edge>

    <edge id="-E0" from="J2" to="J1" priority="-1">
        <lane id="-E0_0" index="0" speed="13.89" length="1272.80" shape="1386.40,508.00 113.60,508.00"/>
        <lane id="-E0_1" index="1" speed="13.89" length="1272.80" shape="1386.40,504.80 113.60,504.80"/>
        <lane id="-E0_2" index="2" speed="13.89" length="1272.80" shape="1386.40,501.60 113.60,501.60"/>
    </edge>
    <edge id="-E1" from="J3" to="J2" priority="-1">
        <lane id="-E1_0" index="0" speed="13.89" length="872.80" shape="1408.00,-386.40 1408.00,486.40"/>
        <lane id="-E1_1" index="1" speed="13.89" length="872.80" shape="1404.80,-386.40 1404.80,486.40"/>
        <lane id="-E1_2" index="2" speed="13.89" length="872.80" shape="1401.60,-386.40 1401.60,486.40"/>
    </edge>
    <edge id="-E11" from="J10" to="J9" priority="-1">
        <lane id="-E11_0" index="0" speed="13.89" length="872.80" shape="2292.00,486.40 2292.00,-386.40"/>
        <lane id="-E11_1" index="1" speed="13.89" length="872.80" shape="2295.20,486.40 2295.20,-386.40"/>
        <lane id="-E11_2" index="2" speed="13.89" length="872.80" shape="2298.40,486.40 2298.40,-386.40"/>
    </edge>
    <edge id="-E12" from="J2" to="J10" priority="-1">
        <lane id="-E12_0" index="0" speed="13.89" length="872.80" shape="1413.60,492.00 2286.40,492.00"/>
        <lane id="-E12_1" index="1" speed="13.89" length="872.80" shape="1413.60,495.20 2286.40,495.20"/>
        <lane id="-E12_2" index="2" speed="13.89" length="872.80" shape="1413.60,498.40 2286.40,498.40"/>
    </edge>
    <edge id="-E13" from="J11" to="J2" priority="-1">
        <lane id="-E13_0" index="0" speed="13.89" length="686.40" shape="1392.00,1200.00 1392.00,513.60"/>
        <lane id="-E13_1" index="1" speed="13.89" length="686.40" shape="1395.20,1200.00 1395.20,513.60"/>
        <lane id="-E13_2" index="2" speed="13.89" length="686.40" shape="1398.40,1200.00 1398.40,513.60"/>
    </edge>
    <edge id="-E14" from="J12" to="J10" priority="-1">
        <lane id="-E14_0" index="0" speed="13.89" length="686.40" shape="2292.00,1200.00 2292.00,513.60"/>
        <lane id="-E14_1" index="1" speed="13.89" length="686.40" shape="2295.20,1200.00 2295.20,513.60"/>
        <lane id="-E14_2" index="2" speed="13.89" length="686.40" shape="2298.40,1200.00 2298.40,513.60"/>
    </edge>
    <edge id="-E15" from="J13" to="J9" priority="-1">
        <lane id="-E15_0" index="0" speed="13.89" length="486.40" shape="2308.00,-900.00 2308.00,-413.60"/>
        <lane id="-E15_1" index="1" speed="13.89" length="486.40" shape="2304.80,-900.00 2304.80,-413.60"/>
        <lane id="-E15_2" index="2" speed="13.89" length="486.40" shape="2301.60,-900.00 2301.60,-413.60"/>
    </edge>
    <edge id="-E17" from="J14" to="J3" priority="-1">
        <lane id="-E17_0" index="0" speed="13.89" length="486.40" shape="1408.00,-900.00 1408.00,-413.60"/>
        <lane id="-E17_1" index="1" speed="13.89" length="486.40" shape="1404.80,-900.00 1404.80,-413.60"/>
        <lane id="-E17_2" index="2" speed="13.89" length="486.40" shape="1401.60,-900.00 1401.60,-413.60"/>
    </edge>
    <edge id="-E2" from="J4" to="J3" priority="-1">
        <lane id="-E2_0" index="0" speed="13.89" length="1272.80" shape="113.60,-408.00 1386.40,-408.00"/>
        <lane id="-E2_1" index="1" speed="13.89" length="1272.80" shape="113.60,-404.80 1386.40,-404.80"/>
        <lane id="-E2_2" index="2" speed="13.89" length="1272.80" shape="113.60,-401.60 1386.40,-401.60"/>
    </edge>
    <edge id="-E3" from="J1" to="J4" priority="-1">
        <lane id="-E3_0" index="0" speed="13.89" length="872.80" shape="92.00,486.40 92.00,-386.40"/>
        <lane id="-E3_1" index="1" speed="13.89" length="872.80" shape="95.20,486.40 95.20,-386.40"/>
        <lane id="-E3_2" index="2" speed="13.89" length="872.80" shape="98.40,486.40 98.40,-386.40"/>
    </edge>
    <edge id="-E4" from="J5" to="J1" priority="-1">
        <lane id="-E4_0" index="0" speed="13.89" length="976.80" shape="-890.40,492.00 86.40,492.00"/>
        <lane id="-E4_1" index="1" speed="13.89" length="976.80" shape="-890.40,495.20 86.40,495.20"/>
        <lane id="-E4_2" index="2" speed="13.89" length="976.80" shape="-890.40,498.40 86.40,498.40"/>
    </edge>
    <edge id="-E5" from="J6" to="J5" priority="-1">
        <lane id="-E5_0" index="0" speed="13.89" length="880.80" shape="-892.00,-390.40 -892.00,490.40"/>
        <lane id="-E5_1" index="1" speed="13.89" length="880.80" shape="-895.20,-390.40 -895.20,490.40"/>
        <lane id="-E5_2" index="2" speed="13.89" length="880.80" shape="-898.40,-390.40 -898.40,490.40"/>
    </edge>
    <edge id="-E6" from="J4" to="J6" priority="-1">
        <lane id="-E6_0" index="0" speed="13.89" length="976.80" shape="86.40,-392.00 -890.40,-392.00"/>
        <lane id="-E6_1" index="1" speed="13.89" length="976.80" shape="86.40,-395.20 -890.40,-395.20"/>
        <lane id="-E6_2" index="2" speed="13.89" length="976.80" shape="86.40,-398.40 -890.40,-398.40"/>
    </edge>
    <edge id="-E7" from="J7" to="J1" priority="-1">
        <lane id="-E7_0" index="0" speed="13.89" length="686.40" shape="92.00,1200.00 92.00,513.60"/>
        <lane id="-E7_1" index="1" speed="13.89" length="686.40" shape="95.20,1200.00 95.20,513.60"/>
        <lane id="-E7_2" index="2" speed="13.89" length="686.40" shape="98.40,1200.00 98.40,513.60"/>
    </edge>
    <edge id="E0" from="J1" to="J2" priority="-1">
        <lane id="E0_0" index="0" speed="13.89" length="1272.80" shape="113.60,492.00 1386.40,492.00"/>
        <lane id="E0_1" index="1" speed="13.89" length="1272.80" shape="113.60,495.20 1386.40,495.20"/>
        <lane id="E0_2" index="2" speed="13.89" length="1272.80" shape="113.60,498.40 1386.40,498.40"/>
    </edge>
    <edge id="E1" from="J2" to="J3" priority="-1">
        <lane id="E1_0" index="0" speed="13.89" length="872.80" shape="1392.00,486.40 1392.00,-386.40"/>
        <lane id="E1_1" index="1" speed="13.89" length="872.80" shape="1395.20,486.40 1395.20,-386.40"/>
        <lane id="E1_2" index="2" speed="13.89" length="872.80" shape="1398.40,486.40 1398.40,-386.40"/>
    </edge>
    <edge id="E10" from="J4" to="J9" priority="-1">