<?xml version="1.0" encoding="UTF-8"?>

<!-- generated on 2023-10-25 13:51:11.744048 by randomTrips.py v1_14_1+0000-f654d7b963e
<configuration>
    <end value="3600"/>
    <net-file value="final.net.xml"/>
</configuration>
-->

<routes xmlns:xsi="http://www.w3.org/2001/XMLSchema-instance" xsi:noNamespaceSchemaLocation="http://sumo.dlr.de/xsd/routes_file.xsd">
    <vType id="emergency" accel="1.5" decel="4.5" sigma="0.5" length="7" minGap="3" maxSpeed="20" guiShape="bus" color="1,0,0"/>
    <vType id="normal" accel="0.8" decel="4.5" sigma="0.5" length="5" minGap="2.5" maxSpeed="8.67" guiShape="passenger"/>
    
    <trip id="0" type="normal" depart="0.00" from="E11" to="-E0"/>
    <trip id="1" type="normal" depart="1.00" from="-E17" to="-E4"/>
    <trip id="2" type="normal" depart="2.00" from="E16" to="E17"/>
    <trip id="3" type="normal" depart="3.00" from="E5" to="-E11"/>
    <trip id="4" type="normal" depart="4.00" from="-E5" to="-E0"/>
    <trip id="5" type="normal" depart="5.00" from="-E14" to="E12"/>
    <trip id="6" type="normal" depart="6.00" from="-E0" to="-E3"/>
    <trip id="7" type="normal" depart="7.00" from="E11" to="E13"/>
    <trip id="8" type="normal" depart="8.00" from="-E14" to="E14"/>
    <trip id="9" type="normal" depart="9.00" from="E2" to="-E0"/>
    <trip id="10" type="normal" depart="10.00" from="E2" to="E17"/>
    <trip id="11" type="normal" depart="11.00" from="-E3" to="-E2"/>
    <trip id="12" type="normal" depart="12.00" from="E6" to="E0"/>
    <trip id="13" type="normal" depart="13.00" from="-E11" to="-E11"/>
    <trip id="14" type="normal" depart="14.00" from="E3" to="E15"/>
    <trip id="15" type="normal" depart="15.00" from="E2" to="E18"/>
    <trip id="16" type="normal" depart="16.00" from="E0" to="E8"/>
    <trip id="17" type="normal" depart="17.00" from="-E4" to="E13"/>
    <trip id="18" type="normal" depart="18.00" from="E3" to="E15"/>
    <trip id="19" type="normal" depart="19.00" from="E4" to="E14"/>
    <trip id="20" type="normal" depart="20.00" from="E16" to="-E1"/>
    <trip id="21" type="normal" depart="21.00" from="-E15" to="-E5"/>
    <trip id="22" type="normal" depart="22.00" from="-E11" to="-E4"/>
    <trip id="23" type="normal" depart="23.00" from="-E11" to="-E5"/>
    <trip id="24" type="normal" depart="24.00" from="E11" to="E0"/>
    <trip id="25" type="normal" depart="25.00" from="-E3" to="-E3"/>
    <trip id="26" type="normal" depart="26.00" from="-E17" to="E7"/>
    <trip id="27" type="normal" depart="27.00" from="E11" to="E15"/>
    <trip id="28" type="normal" depart="28.00" from="-E13" to="E18"/>
    <trip id="29" type="normal" depart="29.00" from="-E13" to="E1"/>
    <trip id="30" type="normal" depart="30.00" from="E9" to="E16"/>
    <trip id="31" type="normal" depart="31.00" from="E1" to="E17"/>
    <trip id="32" type="normal" depart="32.00" from="E3" to="E2"/>
    <trip id="33" type="normal" depart="33.00" from="-E15" to="-E0"/>
    <trip id="34" type="normal" depart="34.00" from="-E2" to="-E5"/>
    <trip id="35" type="normal" depart="35.00" from="-E14" to="E7"/>
    <trip id="36" type="normal" depart="36.00" from="E4" to="-E6"/>
    <trip id="37" type="normal" depart="37.00" from="E11" to="E1"/>
    <trip id="38" type="normal" depart="38.00" from="E5" to="E11"/>
    <trip id="39" type="normal" depart="39.00" from="-E17" to="-E4"/>
    <trip id="40" type="normal" depart="40.00" from="E1" to="-E5"/>
    <trip id="41" type="normal" depart="41.00" from="E1" to="E6"/>
    <trip id="42" type="normal" depart="42.00" from="-E4" to="-E3"/>
    <trip id="43" type="normal" depart="43.00" from="E9" to="E12"/>
    <trip id="44" type="normal" depart="44.00" from="-E11" to="-E1"/>
    <trip id="45" type="normal" depart="45.00" from="-E11" to="E15"/>
    <trip id="46" type="normal" depart="46.00" from="E2" to="E10"/>
    <trip id="47" type="normal" depart="47.00" from="-E1" to="E1"/>
    <trip id="48" type="normal" depart="48.00" from="E9" to="E13"/>
    <trip id="49" type="normal" depart="49.00" from="E9" to="E5"/>
    <trip id="50" type="normal" depart="50.00" from="-E0" to="E18"/>
    <trip id="51" type="normal" depart="51.00" from="E12" to="E13"/>
    <trip id="52" type="normal" depart="52.00" from="-E17" to="E16"/>
    <trip id="53" type="normal" depart="53.00" from="-E12" to="E10"/>
    <trip id="54" type="normal" depart="54.00" from="-E6" to="E7"/>
    <trip id="55" type="normal" depart="55.00" from="E4" to="-E5"/>
    <trip id="56" type="normal" depart="56.00" from="-E7" to="-E2"/>
    <trip id="57" type="normal" depart="57.00" from="E5" to="E5"/>
    <trip id="58" type="normal" depart="58.00" from="-E2" to="E16"/>
    <trip id="59" type="normal" depart="59.00" from="E10" to="-E2"/>
    <trip id="60" type="normal" depart="60.00" from="E19" to="E13"/>
    <trip id="61" type="normal" depart="61.00" from="E2" to="E13"/>
    <trip id="62" type="normal" depart="62.00" from="-E0" to="-E6"/>
    <trip id="63" type="normal" depart="63.00" from="-E0" to="E7"/>
    <trip id="64" type="normal" depart="64.00" from="E4" to="E4"/>
    <trip id="65" type="normal" depart="65.00" from="-E2" to="-E1"/>
    <trip id="66" type="normal" depart="66.00" from="E4" to="E7"/>
    <trip id="67" type="normal" depart="67.00" from="-E11" to="E12"/>
    <trip id="68" type="normal" depart="68.00" from="-E1" to="E2"/>
    <trip id="69" type="normal" depart="69.00" from="E19" to="-E12"/>
    <trip id="70" type="normal" depart="70.00" from="-E6" to="E13"/>
    <trip id="71" type="normal" depart="71.00" from="-E17" to="E5"/>
    <trip id="72" type="normal" depart="72.00" from="-E5" to="-E3"/>
    <trip id="73" type="normal" depart="73.00" from="E0" to="E18"/>
    <trip id="74" type="normal" depart="74.00" from="-E14" to="-E6"/>
    <trip id="75" type="normal" depart="75.00" from="E9" to="E16"/>
    <trip id="76" type="normal" depart="76.00" from="-E5" to="E12"/>
    <trip id="77" type="normal" depart="77.00" from="-E12" to="-E4"/>
    <trip id="78" type="normal" depart="78.00" from="-E3" to="E14"/>
    <trip id="79" type="normal" depart="79.00" from="-E15" to="-E3"/>
    <trip id="80" type="normal" depart="80.00" from="-E1" to="E16"/>
    <trip id="81" type="normal" depart="81.00" from="-E15" to="E6"/>
    <trip id="82" type="normal" depart="82.00" from="E4" to="-E1"/>
    <trip id="83" type="normal" depart="83.00" from="-E15" to="E17"/>
    <trip id="84" type="normal" depart="84.00" from="-E14" to="-E12"/>
    <trip id="85" type="normal" depart="85.00" from="E6" to="E14"/>
    <trip id="86" type="normal" depart="86.00" from="-E6" to="E3"/>
    <trip id="87" type="normal" depart="87.00" from="E2" to="-E3"/>
    <trip id="88" type="normal" depart="88.00" from="-E11" to="E10"/>
    <trip id="89" type="normal" depart="89.00" from="-E5" to="E11"/>
    <trip id="90" type="normal" depart="90.00" from="E16" to="E17"/>
    <trip id="91" type="normal" depart="91.00" from="E9" to="-E11"/>
    <trip id="92" type="normal" depart="92.00" from="-E4" to="E0"/>
    <trip id="93" type="normal" depart="93.00" from="E4" to="-E4"/>
    <trip id="94" type="normal" depart="94.00" from="-E14" to="E11"/>
    <trip id="95" type="normal" depart="95.00" from="-E5" to="-E5"/>
    <trip id="96" type="normal" depart="96.00" from="-E15" to="E6"/>
    <trip id="97" type="normal" depart="97.00" from="-E5" to="E5"/>
    <trip id="98" type="normal" depart="98.00" from="E0" to="-E1"/>
    <trip id="99" type="normal" depart="99.00" from="E9" to="E4"/>
    <trip id="100" type="normal" depart="100.00" from="E9" to="E7"/>
    <trip id="101" type="normal" depart="101.00" from="E3" to="-E2"/>
    <trip id="102" type="normal" depart="102.00" from="-E7" to="-E3"/>
    <trip id="103" type="normal" depart="103.00" from="-E4" to="-E1"/>
    <trip id="104" type="normal" depart="104.00" from="-E4" to="E8"/>
    <trip id="105" type="normal" depart="105.00" from="-E17" to="E3"/>
    <trip id="106" type="normal" depart="106.00" from="-E6" to="E10"/>
    <trip id="10006" type="emergency" depart="106.00" from="-E7" to="E15"/>
    <trip id="107" type="normal" depart="107.00" from="E6" to="E8"/>
    <trip id="108" type="normal" depart="108.00" from="E1" to="E18"/>
    <trip id="109" type="normal" depart="109.00" from="-E13" to="-E6"/>
    <trip id="110" type="normal" depart="110.00" from="E9" to="E14"/>
    <trip id="111" type="normal" depart="111.00" from="E0" to="E2"/>
    <trip id="112" type="normal" depart="112.00" from="-E1" to="E14"/>
    <trip id="113" type="normal" depart="113.00" from="-E7" to="E5"/>
    <trip id="114" type="normal" depart="114.00" from="-E13" to="E7"/>
    <trip id="115" type="normal" depart="115.00" from="-E11" to="-E3"/>
    <trip id="116" type="normal" depart="116.00" from="E10" to="E17"/>
    <trip id="117" type="normal" depart="117.00" from="-E15" to="-E12"/>
    <trip id="118" type="normal" depart="118.00" from="E5" to="-E4"/>
    <trip id="119" type="normal" depart="119.00" from="E10" to="E15"/>
    <trip id="120" type="normal" depart="120.00" from="-E5" to="E14"/>
    <trip id="121" type="normal" depart="121.00" from="E0" to="E7"/>
    <trip id="122" type="normal" depart="122.00" from="-E14" to="E18"/>
    <trip id="123" type="normal" depart="123.00" from="-E15" to="E1"/>
    <trip id="124" type="normal" depart="124.00" from="E12" to="-E6"/>
    <trip id="125" type="normal" depart="125.00" from="-E2" to="E2"/>
    <trip id="126" type="normal" depart="126.00" from="-E1" to="E11"/>
    <trip id="127" type="normal" depart="127.00" from="E9" to="E8"/>
    <trip id="128" type="normal" depart="128.00" from="-E1" to="-E3"/>
    <trip id="129" type="normal" depart="129.00" from="-E17" to="E7"/>
    <trip id="130" type="normal" depart="130.00" from="E4" to="E5"/>
    <trip id="131" type="normal" depart="131.00" from="-E3" to="-E2"/>
    <trip id="132" type="normal" depart="132.00" from="E3" to="E17"/>
    <trip id="133" type="normal" depart="133.00" from="E10" to="E8"/>
    <trip id="134" type="normal" depart="134.00" from="E11" to="-E0"/>
    <trip id="135" type="normal" depart="135.00" from="E3" to="-E6"/>
    <trip id="136" type="normal" depart="136.00" from="E11" to="E7"/>
    <trip id="137" type="normal" depart="137.00" from="-E12" to="-E12"/>
    <trip id="138" type="normal" depart="138.00" from="-E11" to="E13"/>
    <trip id="139" type="normal" depart="139.00" from="-E17" to="E15"/>
    <trip id="140" type="normal" depart="140.00" from="E16" to="-E3"/>
    <trip id="141" type="normal" depart="141.00" from="E11" to="-E5"/>
    <trip id="142" type="normal" depart="142.00" from="-E7" to="E6"/>
    <trip id="143" type="normal" depart="143.00" from="E3" to="-E11"/>
    <trip id="144" type="normal" depart="144.00" from="-E5" to="-E5"/>
    <trip id="145" type="normal" depart="145.00" from="-E0" to="E2"/>
    <trip id="146" type="normal" depart="146.00" from="E11" to="-E5"/>
    <trip id="147" type="normal" depart="147.00" from="E19" to="E13"/>
    <trip id="148" type="normal" depart="148.00" from="-E5" to="-E0"/>
    <trip id="149" type="normal" depart="149.00" from="-E11" to="E5"/>
    <trip id="150" type="normal" depart="150.00" from="E5" to="E13"/>
    <trip id="151" type="normal" depart="151.00" from="E3" to="E14"/>
    <trip id="152" type="normal" depart="152.00" from="-E12" to="-E12"/>
    <trip id="153" type="normal" depart="153.00" from="-E2" to="E6"/>
    <trip id="154" type="normal" depart="154.00" from="E2" to="E5"/>
    <trip id="155" type="normal" depart="155.00" from="E5" to="-E3"/>
    <trip id="156" type="normal" depart="156.00" from="-E15" to="-E11"/>
    <trip id="157" type="normal" depart="157.00" from="E2" to="E5"/>
    <trip id="158" type="normal" depart="158.00" from="-E4" to="E15"/>
    <trip id="159" type="normal" depart="159.00" from="-E13" to="E7"/>
    <trip id="160" type="normal" depart="160.00" from="E4" to="E8"/>
    <trip id="161" type="normal" depart="161.00" from="E2" to="E5"/>
    <trip id="162" type="normal" depart="162.00" from="-E0" to="E18"/>
    <trip id="163" type="normal" depart="163.00" from="-E2" to="E7"/>
    <trip id="164" type="normal" depart="164.00" from="E2" to="E5"/>
    <trip id="165" type="normal" depart="165.00" from="E2" to="-E5"/>
    <trip id="166" type="normal" depart="166.00" from="E2" to="-E11"/>
    <trip id="167" type="normal" depart="167.00" from="E4" to="E5"/>
    <trip id="168" type="emergency" depart="168.00" from="-E15" to="E4"/>
    <trip id="169" type="normal" depart="169.00" from="-E6" to="-E6"/>
    <trip id="170" type="normal" depart="170.00" from="E2" to="-E4"/>
    <trip id="171" type="normal" depart="171.00" from="-E0" to="-E3"/>
    <trip id="172" type="normal" depart="172.00" from="-E2" to="E5"/>
    <trip id="173" type="normal" depart="173.00" from="E9" to="-E5"/>
    <trip id="174" type="normal" depart="174.00" from="E11" to="E1"/>
    <trip id="175" type="normal" depart="175.00" from="E9" to="E13"/>
    <trip id="176" type="normal" depart="176.00" from="E6" to="-E12"/>
    <trip id="177" type="normal" depart="177.00" from="E9" to="-E2"/>
    <trip id="178" type="normal" depart="178.00" from="E6" to="-E5"/>
    <trip id="179" type="normal" depart="179.00" from="-E11" to="E10"/>
    <trip id="180" type="normal" depart="180.00" from="E16" to="-E6"/>
    <trip id="181" type="normal" depart="181.00" from="E10" to="E12"/>
    <trip id="182" type="normal" depart="182.00" from="-E4" to="E14"/>
    <trip id="183" type="normal" depart="183.00" from="-E15" to="E18"/>
    <trip id="184" type="normal" depart="184.00" from="-E0" to="E6"/>
    <trip id="185" type="normal" depart="185.00" from="E0" to="E18"/>
    <trip id="186" type="normal" depart="186.00" from="E19" to="E17"/>
    <trip id="187" type="normal" depart="187.00" from="-E3" to="-E1"/>
    <trip id="188" type="normal" depart="188.00" from="E11" to="-E6"/>
    <trip id="189" type="normal" depart="189.00" from="-E2" to="E4"/>
    <trip id="190" type="normal" depart="190.00" from="E16" to="-E6"/>
    <trip id="191" type="normal" depart="191.00" from="-E2" to="E10"/>
    <trip id="192" type="normal" depart="192.00" from="-E4" to="-E5"/>
    <trip id="193" type="normal" depart="193.00" from="-E12" to="E10"/>
    <trip id="194" type="normal" depart="194.00" from="E6" to="E17"/>
    <trip id="195" type="normal" depart="195.00" from="E5" to="E15"/>
    <trip id="196" type="normal" depart="196.00" from="-E2" to="E13"/>
    <trip id="197" type="normal" depart="197.00" from="-E0" to="-E5"/>
    <trip id="198" type="normal" depart="198.00" from="-E5" to="E14"/>
    <trip id="199" type="normal" depart="199.00" from="E11" to="E11"/>
    <trip id="200" type="normal" depart="200.00" from="-E5" to="-E3"/>
    <trip id="201" type="normal" depart="201.00" from="-E6" to="E6"/>
    <trip id="202" type="normal" depart="202.00" from="E2" to="-E2"/>
    <trip id="203" type="normal" depart="203.00" from="-E11" to="E12"/>
    <trip id="204" type="normal" depart="204.00" from="E11" to="E0"/>
    <trip id="205" type="normal" depart="205.00" from="E3" to="E2"/>
    <trip id="206" type="normal" depart="206.00" from="E12" to="-E4"/>
    <trip id="207" type="normal" depart="207.00" from="-E14" to="-E0"/>
    <trip id="208" type="normal" depart="208.00" from="-E15" to="E11"/>
    <trip id="209" type="normal" depart="209.00" from="E3" to="-E1"/>
    <trip id="210" type="normal" depart="210.00" from="-E5" to="E16"/>
    <trip id="211" type="normal" depart="211.00" from="-E14" to="E17"/>
    <trip id="212" type="normal" depart="212.00" from="-E7" to="-E4"/>
    <trip id="213" type="normal" depart="213.00" from="E11" to="-E0"/>
    <trip id="214" type="normal" depart="214.00" from="E19" to="E2"/>
    <trip id="215" type="normal" depart="215.00" from="-E11" to="E10"/>
    <trip id="216" type="normal" depart="216.00" from="-E13" to="E7"/>
    <trip id="217" type="normal" depart="217.00" from="-E7" to="-E1"/>
    <trip id="218" type="normal" depart="218.00" from="-E15" to="E4"/>
    <trip id="219" type="normal" depart="219.00" from="-E6" to="E3"/>
    <trip id="220" type="normal" depart="220.00" from="E12" to="E8"/>
    <trip id="221" type="normal" depart="221.00" from="E10" to="E7"/>
    <trip id="222" type="normal" depart="222.00" from="E5" to="E15"/>
    <trip id="223" type="normal" depart="223.00" from="E16" to="E12"/>
    <trip id="224" type="normal" depart="224.00" from="E3" to="E13"/>
    <trip id="225" type="normal" depart="225.00" from="E5" to="E2"/>
    <trip id="226" type="normal" depart="226.00" from="-E6" to="-E4"/>
    <trip id="227" type="normal" depart="227.00" from="-E15" to="E16"/>
    <trip id="228" type="normal" depart="228.00" from="E19" to="E13"/>
    <trip id="229" type="normal" depart="229.00" from="E10" to="-E5"/>
    <trip id="230" type="normal" depart="230.00" from="-E11" to="-E5"/>
    <trip id="231" type="normal" depart="231.00" from="-E17" to="-E6"/>
    <trip id="232" type="normal" depart="232.00" from="E0" to="-E12"/>
    <trip id="233" type="normal" depart="233.00" from="-E15" to="E17"/>
    <trip id="234" type="normal" depart="234.00" from="E16" to="-E1"/>
    <trip id="235" type="emergency" depart="235.00" from="-E5" to="E13"/>
    <trip id="236" type="normal" depart="236.00" from="-E5" to="-E3"/>
    <trip id="237" type="normal" depart="237.00" from="-E5" to="E6"/>
    <trip id="238" type="normal" depart="238.00" from="E1" to="E17"/>
    <trip id="239" type="normal" depart="239.00" from="E4" to="E2"/>
    <trip id="240" type="normal" depart="240.00" from="-E4" to="-E0"/>
    <trip id="241" type="normal" depart="241.00" from="-E3" to="E2"/>
    <trip id="242" type="normal" depart="242.00" from="E4" to="E7"/>
    <trip id="243" type="normal" depart="243.00" from="-E5" to="E2"/>
    <trip id="244" type="normal" depart="244.00" from="E0" to="E15"/>
    <trip id="245" type="normal" depart="245.00" from="-E14" to="-E3"/>
    <trip id="246" type="normal" depart="246.00" from="-E5" to="-E0"/>
    <trip id="247" type="normal" depart="247.00" from="-E3" to="E17"/>
    <trip id="248" type="normal" depart="248.00" from="-E4" to="-E2"/>
    <trip id="249" type="normal" depart="249.00" from="-E6" to="-E12"/>
    <trip id="250" type="normal" depart="250.00" from="E10" to="-E0"/>
    <trip id="251" type="normal" depart="251.00" from="-E4" to="E14"/>
    <trip id="252" type="normal" depart="252.00" from="-E0" to="E16"/>
    <trip id="253" type="normal" depart="253.00" from="-E12" to="E11"/>
    <trip id="254" type="normal" depart="254.00" from="-E1" to="E1"/>
    <trip id="255" type="normal" depart="255.00" from="-E14" to="-E6"/>
    <trip id="256" type="normal" depart="256.00" from="E19" to="E1"/>
    <trip id="257" type="normal" depart="257.00" from="E19" to="E4"/>
    <trip id="258" type="normal" depart="258.00" from="-E15" to="-E11"/>
    <trip id="259" type="normal" depart="259.00" from="-E0" to="E13"/>
    <trip id="260" type="normal" depart="260.00" from="E9" to="E0"/>
    <trip id="261" type="normal" depart="261.00" from="E11" to="E3"/>
    <trip id="262" type="normal" depart="262.00" from="E11" to="E2"/>
    <trip id="263" type="normal" depart="263.00" from="E6" to="-E3"/>
    <trip id="264" type="normal" depart="264.00" from="-E0" to="-E2"/>
    <trip id="265" type="normal" depart="265.00" from="-E12" to="E17"/>
    <trip id="266" type="normal" depart="266.00" from="E1" to="-E3"/>
    <trip id="267" type="normal" depart="267.00" from="E12" to="E2"/>
    <trip id="268" type="normal" depart="268.00" from="-E13" to="E15"/>
    <trip id="269" type="normal" depart="269.00" from="E19" to="-E12"/>
    <trip id="270" type="normal" depart="270.00" from="E3" to="E8"/>
    <trip id="271" type="normal" depart="271.00" from="-E11" to="-E0"/>
    <trip id="272" type="normal" depart="272.00" from="-E2" to="E17"/>
    <trip id="273" type="normal" depart="273.00" from="E6" to="E1"/>
    <trip id="274" type="normal" depart="274.00" from="E16" to="-E11"/>
    <trip id="275" type="normal" depart="275.00" from="E12" to="E15"/>
    <trip id="276" type="normal" depart="276.00" from="-E11" to="E2"/>
    <trip id="277" type="normal" depart="277.00" from="E3" to="E15"/>
    <trip id="278" type="normal" depart="278.00" from="-E12" to="E8"/>
    <trip id="279" type="normal" depart="279.00" from="E2" to="E0"/>
    <trip id="280" type="normal" depart="280.00" from="-E5" to="E1"/>
    <trip id="281" type="normal" depart="281.00" from="-E7" to="E0"/>
    <trip id="282" type="normal" depart="282.00" from="E3" to="E4"/>
    <trip id="283" type="normal" depart="283.00" from="-E11" to="E7"/>
    <trip id="284" type="normal" depart="284.00" from="E11" to="E4"/>
    <trip id="285" type="normal" depart="285.00" from="E16" to="E10"/>
    <trip id="286" type="normal" depart="286.00" from="E16" to="E8"/>
    <trip id="287" type="normal" depart="287.00" from="-E17" to="E3"/>
    <trip id="288" type="normal" depart="288.00" from="E0" to="E12"/>
    <trip id="289" type="normal" depart="289.00" from="-E5" to="E18"/>
    <trip id="290" type="normal" depart="290.00" from="-E17" to="E4"/>
    <trip id="291" type="normal" depart="291.00" from="E3" to="-E11"/>
    <trip id="292" type="normal" depart="292.00" from="E4" to="-E4"/>
    <trip id="293" type="normal" depart="293.00" from="-E6" to="E15"/>
    <trip id="294" type="normal" depart="294.00" from="-E4" to="-E0"/>
    <trip id="295" type="normal" depart="295.00" from="E3" to="-E2"/>
    <trip id="296" type="normal" depart="296.00" from="-E14" to="E3"/>
    <trip id="297" type="normal" depart="297.00" from="-E3" to="E5"/>
    <trip id="298" type="normal" depart="298.00" from="E12" to="-E5"/>
    <trip id="299" type="normal" depart="299.00" from="-E0" to="E7"/>
    <trip id="300" type="normal" depart="300.00" from="-E11" to="E18"/>
    <trip id="301" type="normal" depart="301.00" from="-E7" to="E2"/>
    <trip id="302" type="normal" depart="302.00" from="E12" to="E16"/>
    <trip id="303" type="normal" depart="303.00" from="-E7" to="E3"/>
    <trip id="304" type="normal" depart="304.00" from="-E11" to="-E3"/>
    <trip id="305" type="normal" depart="305.00" from="E12" to="-E6"/>
    <trip id="306" type="normal" depart="306.00" from="E1" to="E11"/>
    <trip id="307" type="normal" depart="307.00" from="E0" to="E10"/>
    <trip id="308" type="normal" depart="308.00" from="E19" to="-E6"/>
    <trip id="309" type="normal" depart="309.00" from="E12" to="-E5"/>
    <trip id="310" type="normal" depart="310.00" from="-E15" to="-E12"/>
    <trip id="311" type="normal" depart="311.00" from="-E14" to="-E12"/>
    <trip id="312" type="normal" depart="312.00" from="E0" to="E2"/>
    <trip id="313" type="normal" depart="313.00" from="-E13" to="-E3"/>
    <trip id="314" type="normal" depart="314.00" from="-E7" to="E18"/>
    <trip id="315" type="normal" depart="315.00" from="E9" to="E13"/>
    <trip id="316" type="normal" depart="316.00" from="-E17" to="-E11"/>
    <trip id="317" type="normal" depart="317.00" from="-E14" to="-E4"/>
    <trip id="318" type="normal" depart="318.00" from="-E13" to="-E0"/>
    <trip id="319" type="normal" depart="319.00" from="E0" to="-E5"/>
    <trip id="320" type="normal" depart="320.00" from="E9" to="E13"/>
    <trip id="321" type="normal" depart="321.00" from="E12" to="-E12"/>
    <trip id="322" type="normal" depart="322.00" from="E4" to="E12"/>
    <trip id="323" type="normal" depart="323.00" from="E4" to="E14"/>
    <trip id="324" type="normal" depart="324.00" from="-E6" to="E10"/>
    <trip id="325" type="normal" depart="325.00" from="-E13" to="-E1"/>
    <trip id="326" type="normal" depart="326.00" from="E6" to="E11"/>
    <trip id="327" type="normal" depart="327.00" from="E3" to="E1"/>
    <trip id="328" type="normal" depart="328.00" from="-E11" to="E15"/>
    <trip id="329" type="normal" depart="329.00" from="-E1" to="-E2"/>
    <trip id="330" type="normal" depart="330.00" from="E1" to="-E6"/>
    <trip id="331" type="normal" depart="331.00" from="E9" to="-E12"/>
    <trip id="332" type="normal" depart="332.00" from="E19" to="E15"/>
    <trip id="333" type="normal" depart="333.00" from="E2" to="-E4"/>
    <trip id="334" type="normal" depart="334.00" from="E0" to="E11"/>
    <trip id="335" type="normal" depart="335.00" from="-E5" to="E5"/>
    <trip id="336" type="normal" depart="336.00" from="E9" to="-E6"/>
    <trip id="337" type="normal" depart="337.00" from="E10" to="E15"/>
    <trip id="338" type="normal" depart="338.00" from="E16" to="E7"/>
    <trip id="339" type="normal" depart="339.00" from="-E14" to="-E3"/>
    <trip id="340" type="normal" depart="340.00" from="E11" to="-E2"/>
    <trip id="341" type="normal" depart="341.00" from="-E13" to="-E11"/>
    <trip id="342" type="normal" depart="342.00" from="-E0" to="E11"/>
    <trip id="343" type="normal" depart="343.00" from="E10" to="-E5"/>
    <trip id="344" type="normal" depart="344.00" from="-E15" to="E18"/>
    <trip id="345" type="normal" depart="345.00" from="E12" to="E11"/>
    <trip id="346" type="normal" depart="346.00" from="E12" to="E6"/>
    <trip id="347" type="emergency" depart="347.00" from="E2" to="E15"/>
    <trip id="348" type="normal" depart="348.00" from="E11" to="E7"/>
    <trip id="349" type="normal" depart="349.00" from="-E5" to="E13"/>
    <trip id="350" type="normal" depart="350.00" from="E11" to="E6"/>
    <trip id="351" type="normal" depart="351.00" from="E3" to="-E1"/>
    <trip id="352" type="normal" depart="352.00" from="-E13" to="-E6"/>
    <trip id="353" type="normal" depart="353.00" from="E19" to="E14"/>
    <trip id="354" type="normal" depart="354.00" from="-E17" to="-E12"/>
    <trip id="355" type="normal" depart="355.00" from="E12" to="E17"/>
    <trip id="356" type="normal" depart="356.00" from="E6" to="E12"/>
    <trip id="357" type="normal" depart="357.00" from="-E7" to="-E11"/>
    <trip id="358" type="normal" depart="358.00" from="-E1" to="E10"/>
    <trip id="359" type="normal" depart="359.00" from="-E2" to="-E4"/>
    <trip id="360" type="normal" depart="360.00" from="-E11" to="E7"/>
    <trip id="361" type="normal" depart="361.00" from="E3" to="E14"/>
    <trip id="362" type="normal" depart="362.00" from="E6" to="E8"/>
    <trip id="363" type="normal" depart="363.00" from="E12" to="-E5"/>
    <trip id="364" type="normal" depart="364.00" from="-E1" to="E2"/>
    <trip id="365" type="normal" depart="365.00" from="-E6" to="E16"/>
    <trip id="366" type="normal" depart="366.00" from="E5" to="-E2"/>
    <trip id="367" type="normal" depart="367.00" from="E1" to="E16"/>
    <trip id="368" type="normal" depart="368.00" from="-E7" to="-E11"/>
    <trip id="369" type="normal" depart="369.00" from="-E3" to="-E6"/>
    <trip id="370" type="normal" depart="370.00" from="E12" to="E5"/>
    <trip id="371" type="normal" depart="371.00" from="-E2" to="E17"/>
    <trip id="372" type="normal" depart="372.00" from="-E17" to="E7"/>
    <trip id="373" type="normal" depart="373.00" from="E2" to="E13"/>
    <trip id="374" type="normal" depart="374.00" from="-E6" to="-E6"/>
    <trip id="375" type="normal" depart="375.00" from="-E2" to="E8"/>
    <trip id="376" type="normal" depart="376.00" from="-E4" to="E12"/>
    <trip id="377" type="normal" depart="377.00" from="E9" to="E16"/>
    <trip id="378" type="normal" depart="378.00" from="E0" to="E10"/>
    <trip id="379" type="normal" depart="379.00" from="-E14" to="E0"/>
    <trip id="380" type="normal" depart="380.00" from="E19" to="E15"/>
    <trip id="381" type="normal" depart="381.00" from="E19" to="-E3"/>
    <trip id="382" type="normal" depart="382.00" from="E0" to="E7"/>
    <trip id="383" type="normal" depart="383.00" from="-E5" to="E17"/>
    <trip id="384" type="normal" depart="384.00" from="-E12" to="E8"/>
    <trip id="385" type="normal" depart="385.00" from="E10" to="-E4"/>
    <trip id="386" type="normal" depart="386.00" from="-E13" to="E13"/>
    <trip id="387" type="normal" depart="387.00" from="E0" to="-E11"/>
    <trip id="388" type="normal" depart="388.00" from="E9" to="E6"/>
    <trip id="389" type="normal" depart="389.00" from="-E6" to="-E12"/>
    <trip id="390" type="normal" depart="390.00" from="E3" to="E12"/>
    <trip id="391" type="normal" depart="391.00" from="E16" to="E12"/>
    <trip id="392" type="normal" depart="392.00" from="-E17" to="E4"/>
    <trip id="393" type="normal" depart="393.00" from="E9" to="-E4"/>
    <trip id="394" type="normal" depart="394.00" from="E0" to="E1"/>
    <trip id="395" type="normal" depart="395.00" from="E5" to="E12"/>
    <trip id="396" type="normal" depart="396.00" from="E4" to="E5"/>
    <trip id="397" type="normal" depart="397.00" from="-E17" to="E3"/>
    <trip id="398" type="normal" depart="398.00" from="-E5" to="E7"/>
    <trip id="399" type="normal" depart="399.00" from="-E7" to="E4"/>
    <trip id="400" type="normal" depart="400.00" from="-E17" to="-E6"/>
    <trip id="401" type="normal" depart="401.00" from="E1" to="E8"/>
    <trip id="402" type="normal" depart="402.00" from="-E7" to="-E2"/>
    <trip id="403" type="normal" depart="403.00" from="E0" to="E0"/>
    <trip id="404" type="normal" depart="404.00" from="E0" to="E13"/>
    <trip id="405" type="normal" depart="405.00" from="-E6" to="-E6"/>
    <trip id="406" type="normal" depart="406.00" from="-E14" to="E17"/>
    <trip id="407" type="normal" depart="407.00" from="E1" to="-E4"/>
    <trip id="408" type="normal" depart="408.00" from="E19" to="-E1"/>
    <trip id="409" type="normal" depart="409.00" from="E19" to="E18"/>
    <trip id="410" type="normal" depart="410.00" from="E2" to="E1"/>
    <trip id="411" type="normal" depart="411.00" from="E11" to="E4"/>
    <trip id="412" type="normal" depart="412.00" from="E9" to="E12"/>
    <trip id="413" type="normal" depart="413.00" from="-E0" to="E12"/>
    <trip id="414" type="normal" depart="414.00" from="E1" to="E5"/>
    <trip id="415" type="normal" depart="415.00" from="E4" to="E10"/>
    <trip id="416" type="normal" depart="416.00" from="E0" to="E11"/>