<routes>
        <vType id="normal" accel="0.8" decel="4.5" sigma="0.5" length="5" minGap="2.5" maxSpeed="8.67" guiShape="passenger"/>
        <vType id="emergency" accel="1.0" decel="4.5" sigma="0.5" length="7" minGap="3" maxSpeed="16" guiShape="bus" color="1,0,0"/>
        <route id="R0" edges="E4" lane="E4_2" />
        
    <vehicle id="p1_0" type="normal" depart="0" departLane="1" route="R0"/>
    <vehicle id="p1_1" type="normal" depart="1" departLane="1" route="R0"/>
    <vehicle id="p3_2" type="normal" depart="1" departLane="3" route="R0"/>
    <vehicle id="p0_3" type="normal" depart="2" departLane="0" route="R0"/>
    <vehicle id="p1_4" type="normal" depart="3" departLane="1" route="R0"/>
    <vehicle id="p2_5" type="normal" depart="4" departLane="2" route="R0"/>
    <vehicle id="p3_6" type="normal" depart="4" departLane="3" route="R0"/>
    <vehicle id="p2_7" type="normal" depart="7" departLane="2" route="R0"/>
    <vehicle id="p2_8" type="normal" depart="9" departLane="2" route="R0"/>
    <vehicle id="p1_9" type="normal" depart="11" departLane="1" route="R0"/>
    <vehicle id="p4_10" type="normal" depart="14" departLane="4" route="R0"/>
    <vehicle id="p4_11" type="normal" depart="15" departLane="4" route="R0"/>
    <vehicle id="p4_12" type="normal" depart="16" departLane="4" route="R0"/>
    <vehicle id="p4_13" type="normal" depart="20" departLane="4" route="R0"/>
    <vehicle id="p0_14" type="normal" depart="21" departLane="0" route="R0"/>
    <vehicle id="p2_15" type="normal" depart="22" departLane="2" route="R0"/>
    <vehicle id="p4_16" type="normal" depart="22" departLane="4" route="R0"/>
    <vehicle id="p1_17" type="normal" depart="23" departLane="1" route="R0"/>
    <vehicle id="p4_18" type="normal" depart="26" departLane="4" route="R0"/>
    <vehicle id="p3_19" type="normal" depart="27" departLane="3" route="R0"/>
    <vehicle id="p1_20" type="normal" depart="28" departLane="1" route="R0"/>
    <vehicle id="p2_21" type="normal" depart="29" departLane="2" route="R0"/>
    <vehicle id="p3_22" type="normal" depart="30" departLane="3" route="R0"/>
    <vehicle id="p2_23" type="normal" depart="31" departLane="2" route="R0"/>
    <vehicle id="p3_24" type="normal" depart="34" departLane="3" route="R0"/>
    <vehicle id="p2_25" type="normal" depart="36" departLane="2" route="R0"/>
    <vehicle id="p2_26" type="normal" depart="37" departLane="2" route="R0"/>
    <vehicle id="p2_27" type="normal" depart="38" departLane="2" route="R0"/>
    <vehicle id="p1_28" type="normal" depart="39" departLane="1" route="R0"/>
    <vehicle id="p0_29" type="normal" depart="42" departLane="0" route="R0"/>
    <vehicle id="p4_30" type="normal" depart="42" departLane="4" route="R0"/>
    <vehicle id="emer_31" type="emergency" depart="44" departLane="2" route="R0"/>
    <vehicle id="p2_32" type="normal" depart="48" departLane="2" route="R0"/>
    <vehicle id="p3_33" type="normal" depart="49" departLane="3" route="R0"/>
    <vehicle id="p4_34" type="normal" depart="49" departLane="4" route="R0"/>
    <vehicle id="p1_35" type="normal" depart="52" departLane="1" route="R0"/>
    <vehicle id="p0_36" type="normal" depart="54" departLane="0" route="R0"/>
    <vehicle id="p3_37" type="normal" depart="55" departLane="3" route="R0"/>
    <vehicle id="p0_38" type="normal" depart="57" departLane="0" route="R0"/>
    <vehicle id="p2_39" type="normal" depart="61" departLane="2" route="R0"/>
    <vehicle id="p3_40" type="normal" depart="62" departLane="3" route="R0"/>
    <vehicle id="p2_41" type="normal" depart="64" departLane="2" route="R0"/>
    <vehicle id="p4_42" type="normal" depart="65" departLane="4" route="R0"/>
    <vehicle id="p4_43" type="normal" depart="67" departLane="4" route="R0"/>
    <vehicle id="p1_44" type="normal" depart="69" departLane="1" route="R0"/>
    <vehicle id="p2_45" type="normal" depart="70" departLane="2" route="R0"/>
    <vehicle id="p1_46" type="normal" depart="71" departLane="1" route="R0"/>
    <vehicle id="p3_47" type="normal" depart="72" departLane="3" route="R0"/>
    <vehicle id="p4_48" type="normal" depart="76" departLane="4" route="R0"/>
    <vehicle id="p3_49" type="normal" depart="77" departLane="3" route="R0"/>
    <vehicle id="p1_50" type="normal" depart="78" departLane="1" route="R0"/>
    <vehicle id="p1_51" type="normal" depart="80" departLane="1" route="R0"/>
    <vehicle id="p1_52" type="normal" depart="82" departLane="1" route="R0"/>
    <vehicle id="p1_53" type="normal" depart="83" departLane="1" route="R0"/>
    <vehicle id="p3_54" type="normal" depart="83" departLane="3" route="R0"/>
    <vehicle id="p0_55" type="normal" depart="84" departLane="0" route="R0"/>
    <vehicle id="p2_56" type="normal" depart="84" departLane="2" route="R0"/>
    <vehicle id="p4_57" type="normal" depart="84" departLane="4" route="R0"/>
    <vehicle id="p1_58" type="normal" depart="86" departLane="1" route="R0"/>
    <vehicle id="p2_59" type="normal" depart="86" departLane="2" route="R0"/>
    <vehicle id="p0_60" type="normal" depart="88" departLane="0" route="R0"/>
    <vehicle id="p2_61" type="normal" depart="88" departLane="2" route="R0"/>
    <vehicle id="p2_62" type="normal" depart="89" departLane="2" route="R0"/>
    <vehicle id="p2_63" type="normal" depart="90" departLane="2" route="R0"/>
    <vehicle id="p3_64" type="normal" depart="90" departLane="3" route="R0"/>
    <vehicle id="p3_65" type="normal" depart="91" departLane="3" route="R0"/>
    <vehicle id="p2_66" type="normal" depart="94" departLane="2" route="R0"/>
    <vehicle id="p1_67" type="normal" depart="97" departLane="1" route="R0"/>
    <vehicle id="p1_68" type="normal" depart="98" departLane="1" route="R0"/>
    <vehicle id="p4_69" type="normal" depart="99" departLane="4" route="R0"/>
    <vehicle id="p0_70" type="normal" depart="100" departLane="0" route="R0"/>
    <vehicle id="p2_71" type="normal" depart="101" departLane="2" route="R0"/>
    <vehicle id="p3_72" type="normal" depart="103" departLane="3" route="R0"/>
    <vehicle id="p2_73" type="normal" depart="104" departLane="2" route="R0"/>
    <vehicle id="p3_74" type="normal" depart="105" departLane="3" route="R0"/>
    <vehicle id="p1_75" type="normal" depart="106" departLane="1" route="R0"/>
    <vehicle id="p1_76" type="normal" depart="107" departLane="1" route="R0"/>
    <vehicle id="p2_77" type="normal" depart="108" departLane="2" route="R0"/>
    <vehicle id="p3_78" type="normal" depart="108" departLane="3" route="R0"/>
    <vehicle id="p2_79" type="normal" depart="109" departLane="2" route="R0"/>
    <vehicle id="p4_80" type="normal" depart="109" departLane="4" route="R0"/>
    <vehicle id="p3_81" type="normal" depart="110" departLane="3" route="R0"/>
    <vehicle id="p0_82" type="normal" depart="114" departLane="0" route="R0"/>
    <vehicle id="p1_83" type="normal" depart="117" departLane="1" route="R0"/>
    <vehicle id="p2_84" type="normal" depart="117" departLane="2" route="R0"/>
    <vehicle id="p1_85" type="normal" depart="118" departLane="1" route="R0"/>
    <vehicle id="p1_86" type="normal" depart="119" departLane="1" route="R0"/>
    <vehicle id="p2_87" type="normal" depart="119" departLane="2" route="R0"/>
    <vehicle id="p0_88" type="normal" depart="120" departLane="0" route="R0"/>
    <vehicle id="p2_89" type="normal" depart="121" departLane="2" route="R0"/>
    <vehicle id="p2_90" type="normal" depart="126" departLane="2" route="R0"/>
    <vehicle id="p1_91" type="normal" depart="129" departLane="1" route="R0"/>
    <vehicle id="p2_92" type="normal" depart="135" departLane="2" route="R0"/>
    <vehicle id="p1_93" type="normal" depart="136" departLane="1" route="R0"/>
    <vehicle id="p4_94" type="normal" depart="137" departLane="4" route="R0"/>
    <vehicle id="p0_95" type="normal" depart="142" departLane="0" route="R0"/>
    <vehicle id="p0_96" type="normal" depart="143" departLane="0" route="R0"/>
    <vehicle id="p0_97" type="normal" depart="144" departLane="0" route="R0"/>
    <vehicle id="p2_98" type="normal" depart="145" departLane="2" route="R0"/>
    <vehicle id="p3_99" type="normal" depart="145" departLane="3" route="R0"/>
    <vehicle id="p2_100" type="normal" depart="146" departLane="2" route="R0"/>
    <vehicle id="p0_101" type="normal" depart="147" departLane="0" route="R0"/>
    <vehicle id="p2_102" type="normal" depart="151" departLane="2" route="R0"/>
    <vehicle id="p2_103" type="normal" depart="155" departLane="2" route="R0"/>
    <vehicle id="p3_104" type="normal" depart="155" departLane="3" route="R0"/>
    <vehicle id="p3_105" type="normal" depart="157" departLane="3" route="R0"/>
    <vehicle id="p2_106" type="normal" depart="159" departLane="2" route="R0"/>
    <vehicle id="p0_107" type="normal" depart="161" departLane="0" route="R0"/>
    <vehicle id="p2_108" type="normal" depart="163" departLane="2" route="R0"/>
    <vehicle id="p1_109" type="normal" depart="165" departLane="1" route="R0"/>
    <vehicle id="p4_110" type="normal" depart="166" departLane="4" route="R0"/>
    <vehicle id="p2_111" type="normal" depart="169" departLane="2" route="R0"/>
    <vehicle id="p4_112" type="normal" depart="169" departLane="4" route="R0"/>
    <vehicle id="p0_113" type="normal" depart="171" departLane="0" route="R0"/>
    <vehicle id="p2_114" type="normal" depart="171" departLane="2" route="R0"/>
    <vehicle id="p3_115" type="normal" depart="171" departLane="3" route="R0"/>
    <vehicle id="p1_116" type="normal" depart="172" departLane="1" route="R0"/>
    <vehicle id="p2_117" type="normal" depart="172" departLane="2" route="R0"/>
    <vehicle id="p1_118" type="normal" depart="173" departLane="1" route="R0"/>
    <vehicle id="p2_119" type="normal" depart="174" departLane="2" route="R0"/>
    <vehicle id="p0_120" type="normal" depart="177" departLane="0" route="R0"/>
    <vehicle id="p2_121" type="normal" depart="177" departLane="2" route="R0"/>
    <vehicle id="p1_122" type="normal" depart="182" departLane="1" route="R0"/>
    <vehicle id="p2_123" type="normal" depart="182" departLane="2" route="R0"/>
    <vehicle id="p3_124" type="normal" depart="183" departLane="3" route="R0"/>
    <vehicle id="p3_125" type="normal" depart="187" departLane="3" route="R0"/>
    <vehicle id="emer_126" type="emergency" depart="188" departLane="2" route="R0"/>
    <vehicle id="p3_127" type="normal" depart="189" departLane="3" route="R0"/>
    <vehicle id="p2_128" type="normal" depart="191" departLane="2" route="R0"/>
    <vehicle id="p3_129" type="normal" depart="191" departLane="3" route="R0"/>
    <vehicle id="p1_130" type="normal" depart="193" departLane="1" route="R0"/>
    <vehicle id="p1_131" type="normal" depart="194" departLane="1" route="R0"/>
    <vehicle id="p4_132" type="normal" depart="194" departLane="4" route="R0"/>
    <vehicle id="p1_133" type="normal" depart="195" departLane="1" route="R0"/>
    <vehicle id="p4_134" type="normal" depart="195" departLane="4" route="R0"/>
    <vehicle id="p0_135" type="normal" depart="197" departLane="0" route="R0"/>
    <vehicle id="p2_136" type="normal" depart="197" departLane="2" route="R0"/>
    <vehicle id="p3_137" type="normal" depart="197" departLane="3" route="R0"/>
    <vehicle id="p2_138" type="normal" depart="201" departLane="2" route="R0"/>
    <vehicle id="p0_139" type="normal" depart="206" departLane="0" route="R0"/>
    <vehicle id="p4_140" type="normal" depart="206" departLane="4" route="R0"/>
    <vehicle id="p2_141" type="normal" depart="207" departLane="2" route="R0"/>
    <vehicle id="p4_142" type="normal" depart="207" departLane="4" route="R0"/>
    <vehicle id="p1_143" type="normal" depart="210" departLane="1" route="R0"/>
    <vehicle id="p2_144" type="normal" depart="210" departLane="2" route="R0"/>
    <vehicle id="p2_145" type="normal" depart="213" departLane="2" route="R0"/>
    <vehicle id="p3_146" type="normal" depart="213" departLane="3" route="R0"/>
    <vehicle id="p2_147" type="normal" depart="218" departLane="2" route="R0"/>
    <vehicle id="p1_148" type="normal" depart="219" departLane="1" route="R0"/>
    <vehicle id="p2_149" type="normal" depart="219" departLane="2" route="R0"/>
    <vehicle id="p2_150" type="normal" depart="220" departLane="2" route="R0"/>
    <vehicle id="p0_151" type="normal" depart="229" departLane="0" route="R0"/>
    <vehicle id="p2_152" type="normal" depart="231" departLane="2" route="R0"/>
    <vehicle id="emer_153" type="emergency" depart="231" departLane="2" route="R0"/>
    <vehicle id="p0_154" type="normal" depart="232" departLane="0" route="R0"/>
    <vehicle id="p3_155" type="normal" depart="233" departLane="3" route="R0"/>
    <vehicle id="p1_156" type="normal" depart="234" departLane="1" route="R0"/>
    <vehicle id="p4_157" type="normal" depart="234" departLane="4" route="R0"/>
    <vehicle id="p1_158" type="normal" depart="236" departLane="1" route="R0"/>
    <vehicle id="p3_159" type="normal" depart="236" departLane="3" route="R0"/>
    <vehicle id="p1_160" type="normal" depart="238" departLane="1" route="R0"/>
    <vehicle id="p3_161" type="normal" depart="239" departLane="3" route="R0"/>
    <vehicle id="p0_162" type="normal" depart="241" departLane="0" route="R0"/>
    <vehicle id="p4_163" type="normal" depart="241" departLane="4" route="R0"/>
    <vehicle id="p0_164" type="normal" depart="242" departLane="0" route="R0"/>
    <vehicle id="p1_165" type="normal" depart="246" departLane="1" route="R0"/>
    <vehicle id="p0_166" type="normal" depart="247" departLane="0" route="R0"/>
    <vehicle id="p1_167" type="normal" depart="248" departLane="1" route="R0"/>
    <vehicle id="p2_168" type="normal" depart="249" departLane="2" route="R0"/>
    <vehicle id="p2_169" type="normal" depart="250" departLane="2" route="R0"/>
    <vehicle id="p0_170" type="normal" depart="251" departLane="0" route="R0"/>
    <vehicle id="p3_171" type="normal" depart="253" departLane="3" route="R0"/>
    <vehicle id="p3_172" type="normal" depart="255" departLane="3" route="R0"/>
    <vehicle id="p2_173" type="normal" depart="256" departLane="2" route="R0"/>
    <vehicle id="p1_174" type="normal" depart="257" departLane="1" route="R0"/>
    <vehicle id="p2_175" type="normal" depart="259" departLane="2" route="R0"/>
    <vehicle id="p2_176" type="normal" depart="260" departLane="2" route="R0"/>
    <vehicle id="p3_177" type="normal" depart="261" departLane="3" route="R0"/>
    <vehicle id="p4_178" type="normal" depart="263" departLane="4" route="R0"/>
    <vehicle id="p0_179" type="normal" depart="268" departLane="0" route="R0"/>
    <vehicle id="p1_180" type="normal" depart="268" departLane="1" route="R0"/>
    <vehicle id="p4_181" type="normal" depart="270" departLane="4" route="R0"/>
    <vehicle id="p3_182" type="normal" depart="272" departLane="3" route="R0"/>
    <vehicle id="p4_183" type="normal" depart="273" departLane="4" route="R0"/>
    <vehicle id="p1_184" type="normal" depart="276" departLane="1" route="R0"/>
    <vehicle id="p1_185" type="normal" depart="277" departLane="1" route="R0"/>
    <vehicle id="p3_186" type="normal" depart="282" departLane="3" route="R0"/>
    <vehicle id="p1_187" type="normal" depart="289" departLane="1" route="R0"/>
    <vehicle id="p3_188" type="normal" depart="289" departLane="3" route="R0"/>
    <vehicle id="p4_189" type="normal" depart="289" departLane="4" route="R0"/>
    <vehicle id="p1_190" type="normal" depart="291" departLane="1" route="R0"/>
    <vehicle id="p2_191" type="normal" depart="291" departLane="2" route="R0"/>
    <vehicle id="p2_192" type="normal" depart="292" departLane="2" route="R0"/>
    <vehicle id="p1_193" type="normal" depart="296" departLane="1" route="R0"/>
    <vehicle id="p1_194" type="normal" depart="299" departLane="1" route="R0"/>
    <vehicle id="p2_195" type="normal" depart="300" departLane="2" route="R0"/>
    <vehicle id="p1_196" type="normal" depart="301" departLane="1" route="R0"/>
    <vehicle id="p2_197" type="normal" depart="302" departLane="2" route="R0"/>
    <vehicle id="p1_198" type="normal" depart="303" departLane="1" route="R0"/>
    <vehicle id="p0_199" type="normal" depart="306" departLane="0" route="R0"/>
    <vehicle id="p2_200" type="normal" depart="306" departLane="2" route="R0"/>
    <vehicle id="p2_201" type="normal" depart="310" departLane="2" route="R0"/>
    <vehicle id="p2_202" type="normal" depart="312" departLane="2" route="R0"/>
    <vehicle id="p1_203" type="normal" depart="314" departLane="1" route="R0"/>
    <vehicle id="p1_204" type="normal" depart="317" departLane="1" route="R0"/>
    <vehicle id="p4_205" type="normal" depart="317" departLane="4" route="R0"/>
    <vehicle id="p0_206" type="normal" depart="318" departLane="0" route="R0"/>
    <vehicle id="p1_207" type="normal" depart="319" departLane="1" route="R0"/>
    <vehicle id="p4_208" type="normal" depart="319" departLane="4" route="R0"/>
    <vehicle id="p4_209" type="normal" depart="320" departLane="4" route="R0"/>
    <vehicle id="p0_210" type="normal" depart="322" departLane="0" route="R0"/>
    <vehicle id="p2_211" type="normal" depart="322" departLane="2" route="R0"/>
    <vehicle id="p1_212" type="normal" depart="323" departLane="1" route="R0"/>
    <vehicle id="emer_213" type="emergency" depart="326" departLane="2" route="R0"/>
    <vehicle id="p0_214" type="normal" depart="327" departLane="0" route="R0"/>
    <vehicle id="p4_215" type="normal" depart="329" departLane="4" route="R0"/>
    <vehicle id="p1_216" type="normal" depart="330" departLane="1" route="R0"/>
    <vehicle id="p4_217" type="normal" depart="330" departLane="4" route="R0"/>
    <vehicle id="p4_218" type="normal" depart="331" departLane="4" route="R0"/>
    <vehicle id="p2_219" type="normal" depart="333" departLane="2" route="R0"/>
    <vehicle id="p0_220" type="normal" depart="334" departLane="0" route="R0"/>
    <vehicle id="p1_221" type="normal" depart="338" departLane="1" route="R0"/>
    <vehicle id="p1_222" type="normal" depart="339" departLane="1" route="R0"/>
    <vehicle id="p2_223" type="normal" depart="340" departLane="2" route="R0"/>
    <vehicle id="p4_224" type="normal" depart="341" departLane="4" route="R0"/>
    <vehicle id="p1_225" type="normal" depart="342" departLane="1" route="R0"/>
    <vehicle id="p4_226" type="normal" depart="344" departLane="4" route="R0"/>
    <vehicle id="p2_227" type="normal" depart="349" departLane="2" route="R0"/>
    <vehicle id="p2_228" type="normal" depart="350" departLane="2" route="R0"/>
    <vehicle id="p3_229" type="normal" depart="350" departLane="3" route="R0"/>
    <vehicle id="p0_230" type="normal" depart="352" departLane="0" route="R0"/>
    <vehicle id="p2_231" type="normal" depart="353" departLane="2" route="R0"/>
    <vehicle id="p4_232" type="normal" depart="353" departLane="4" route="R0"/>
    <vehicle id="p2_233" type="normal" depart="354" departLane="2" route="R0"/>
    <vehicle id="p1_234" type="normal" depart="355" departLane="1" route="R0"/>
    <vehicle id="p2_235" type="normal" depart="355" departLane="2" route="R0"/>
    <vehicle id="p1_236" type="normal" depart="358" departLane="1" route="R0"/>
    <vehicle id="p4_237" type="normal" depart="358" departLane="4" route="R0"/>
    <vehicle id="emer_238" type="emergency" depart="358" departLane="2" route="R0"/>
    <vehicle id="p0_239" type="normal" depart="360" departLane="0" route="R0"/>
    <vehicle id="p2_240" type="normal" depart="360" departLane="2" route="R0"/>
    <vehicle id="p1_241" type="normal" depart="361" departLane="1" route="R0"/>
    <vehicle id="p2_242" type="normal" depart="361" departLane="2" route="R0"/>
    <vehicle id="p0_243" type="normal" depart="362" departLane="0" route="R0"/>
    <vehicle id="p2_244" type="normal" depart="363" departLane="2" route="R0"/>
    <vehicle id="p3_245" type="normal" depart="365" departLane="3" route="R0"/>
    <vehicle id="p2_246" type="normal" depart="368" departLane="2" route="R0"/>
    <vehicle id="p0_247" type="normal" depart="369" departLane="0" route="R0"/>
    <vehicle id="p1_248" type="normal" depart="370" departLane="1" route="R0"/>
    <vehicle id="p4_249" type="normal" depart="371" departLane="4" route="R0"/>
    <vehicle id="p0_250" type="normal" depart="372" departLane="0" route="R0"/>
    <vehicle id="p0_251" type="normal" depart="373" departLane="0" route="R0"/>
    <vehicle id="p1_252" type="normal" depart="374" departLane="1" route="R0"/>
    <vehicle id="p4_253" type="normal" depart="374" departLane="4" route="R0"/>
    <vehicle id="p2_254" type="normal" depart="375" departLane="2" route="R0"/>
    <vehicle id="p2_255" type="normal" depart="376" departLane="2" route="R0"/>
    <vehicle id="p1_256" type="normal" depart="378" departLane="1" route="R0"/>
    <vehicle id="p1_257" type="normal" depart="384" departLane="1" route="R0"/>
    <vehicle id="p2_258" type="normal" depart="386" departLane="2" route="R0"/>
    <vehicle id="p1_259" type="normal" depart="387" departLane="1" route="R0"/>
    <vehicle id="p2_260" type="normal" depart="388" departLane="2" route="R0"/>
    <vehicle id="p2_261" type="normal" depart="390" departLane="2" route="R0"/>
    <vehicle id="p3_262" type="normal" depart="390" departLane="3" route="R0"/>
    <vehicle id="p2_263" type="normal" depart="391" departLane="2" route="R0"/>
    <vehicle id="p1_264" type="normal" depart="393" departLane="1" route="R0"/>
    <vehicle id="p2_265" type="normal" depart="394" departLane="2" route="R0"/>
    <vehicle id="p2_266" type="normal" depart="395" departLane="2" route="R0"/>
    <vehicle id="p2_267" type="normal" depart="397" departLane="2" route="R0"/>
    <vehicle id="p3_268" type="normal" depart="397" departLane="3" route="R0"/>
    <vehicle id="p4_269" type="normal" depart="400" departLane="4" route="R0"/>
    <vehicle id="p2_270" type="normal" depart="401" departLane="2" route="R0"/>
    <vehicle id="p2_271" type="normal" depart="402" departLane="2" route="R0"/>
    <vehicle id="p3_272" type="normal" depart="403" departLane="3" route="R0"/>
    <vehicle id="p0_273" type="normal" depart="404" departLane="0" route="R0"/>
    <vehicle id="p2_274" type="normal" depart="404" departLane="2" route="R0"/>
    <vehicle id="p3_275" type="normal" depart="404" departLane="3" route="R0"/>
    <vehicle id="p0_276" type="normal" depart="406" departLane="0" route="R0"/>
    <vehicle id="p1_277" type="normal" depart="406" departLane="1" route="R0"/>
    <vehicle id="p3_278" type="normal" depart="409" departLane="3" route="R0"/>
    <vehicle id="p2_279" type="normal" depart="412" departLane="2" route="R0"/>
    <vehicle id="p3_280" type="normal" depart="412" departLane="3" route="R0"/>
    <vehicle id="p0_281" type="normal" depart="413" departLane="0" route="R0"/>
    <vehicle id="p1_282" type="normal" depart="418" departLane="1" route="R0"/>
    <vehicle id="p2_283" type="normal" depart="419" departLane="2" route="R0"/>
    <vehicle id="p3_284" type="normal" depart="420" departLane="3" route="R0"/>
    <vehicle id="p4_285" type="normal" depart="422" departLane="4" route="R0"/>
    <vehicle id="p2_286" type="normal" depart="423" departLane="2" route="R0"/>
    <vehicle id="emer_287" type="emergency" depart="423" departLane="2" route="R0"/>
    <vehicle id="p3_288" type="normal" depart="424" departLane="3" route="R0"/>
    <vehicle id="p1_289" type="normal" depart="427" departLane="1" route="R0"/>
    <vehicle id="p3_290" type="normal" depart="427" departLane="3" route="R0"/>
    <vehicle id="p0_291" type="normal" depart="428" departLane="0" route="R0"/>
    <vehicle id="p0_292" type="normal" depart="429" departLane="0" route="R0"/>
    <vehicle id="p3_293" type="normal" depart="429" departLane="3" route="R0"/>
    <vehicle id="p3_294" type="normal" depart="430" departLane="3" route="R0"/>
    <vehicle id="p1_295" type="normal" depart="431" departLane="1" route="R0"/>
    <vehicle id="p4_296" type="normal" depart="432" departLane="4" route="R0"/>
    <vehicle id="p1_297" type="normal" depart="434" departLane="1" route="R0"/>
    <vehicle id="p2_298" type="normal" depart="436" departLane="2" route="R0"/>
    <vehicle id="p1_299" type="normal" depart="438" departLane="1" route="R0"/>
    <vehicle id="p3_300" type="normal" depart="439" departLane="3" route="R0"/>
    <vehicle id="p4_301" type="normal" depart="439" departLane="4" route="R0"/>
    <vehicle id="p0_302" type="normal" depart="440" departLane="0" route="R0"/>
    <vehicle id="p1_303" type="normal" depart="440" departLane="1" route="R0"/>
    <vehicle id="p2_304" type="normal" depart="441" departLane="2" route="R0"/>
    <vehicle id="p3_305" type="normal" depart="443" departLane="3" route="R0"/>
    <vehicle id="p1_306" type="normal" depart="444" departLane="1" route="R0"/>
    <vehicle id="p2_307" type="normal" depart="444" departLane="2" route="R0"/>
    <vehicle id="p3_308" type="normal" depart="445" departLane="3" route="R0"/>
    <vehicle id="p2_309" type="normal" depart="448" departLane="2" route="R0"/>
    <vehicle id="p3_310" type="normal" depart="453" departLane="3" route="R0"/>
    <vehicle id="emer_311" type="emergency" depart="455" departLane="2" route="R0"/>
    <vehicle id="p2_312" type="normal" depart="457" departLane="2" route="R0"/>
    <vehicle id="p0_313" type="normal" depart="458" departLane="0" route="R0"/>
    <vehicle id="p1_314" type="normal" depart="459" departLane="1" route="R0"/>
    <vehicle id="p3_315" type="normal" depart="460" departLane="3" route="R0"/>
    <vehicle id="p0_316" type="normal" depart="461" departLane="0" route="R0"/>
    <vehicle id="p1_317" type="normal" depart="462" departLane="1" route="R0"/>
    <vehicle id="p2_318" type="normal" depart="462" departLane="2" route="R0"/>
    <vehicle id="p3_319" type="normal" depart="462" departLane="3" route="R0"/>
    <vehicle id="p2_320" type="normal" depart="468" departLane="2" route="R0"/>
    <vehicle id="p3_321" type="normal" depart="469" departLane="3" route="R0"/>
    <vehicle id="emer_322" type="emergency" depart="470" departLane="2" route="R0"/>
    <vehicle id="p2_323" type="normal" depart="471" departLane="2" route="R0"/>
    <vehicle id="p4_324" type="normal" depart="472" departLane="4" route="R0"/>
    <vehicle id="p2_325" type="normal" depart="473" departLane="2" route="R0"/>
    <vehicle id="p0_326" type="normal" depart="474" departLane="0" route="R0"/>
    <vehicle id="p2_327" type="normal" depart="474" departLane="2" route="R0"/>
    <vehicle id="p0_328" type="normal" depart="475" departLane="0" route="R0"/>
    <vehicle id="p2_329" type="normal" depart="475" departLane="2" route="R0"/>
    <vehicle id="p1_330" type="normal" depart="476" departLane="1" route="R0"/>
    <vehicle id="p1_331" type="normal" depart="477" departLane="1" route="R0"/>
    <vehicle id="p3_332" type="normal" depart="477" departLane="3" route="R0"/>
    <vehicle id="p4_333" type="normal" depart="482" departLane="4" route="R0"/>
    <vehicle id="p4_334" type="normal" depart="486" departLane="4" route="R0"/>
    <vehicle id="p2_335" type="normal" depart="487" departLane="2" route="R0"/>
    <vehicle id="p4_336" type="normal" depart="488" departLane="4" route="R0"/>
    <vehicle id="p2_337" type="normal" depart="490" departLane="2" route="R0"/>
    <vehicle id="p2_338" type="normal" depart="493" departLane="2" route="R0"/>
    <vehicle id="p3_339" type="normal" depart="494" departLane="3" route="R0"/>
    <vehicle id="p2_340" type="normal" depart="496" departLane="2" route="R0"/>
    <vehicle id="p4_341" type="normal" depart="496" departLane="4" route="R0"/>
    <vehicle id="p1_342" type="normal" depart="498" departLane="1" route="R0"/>
    <vehicle id="p2_343" type="normal" depart="498" departLane="2" route="R0"/>
    <vehicle id="p4_344" type="normal" depart="500" departLane="4" route="R0"/>
    <vehicle id="p3_345" type="normal" depart="501" departLane="3" route="R0"/>
    <vehicle id="p3_346" type="normal" depart="502" departLane="3" route="R0"/>
    <vehicle id="p1_347" type="normal" depart="503" departLane="1" route="R0"/>
    <vehicle id="p2_348" type="normal" depart="504" departLane="2" route="R0"/>
    <vehicle id="p3_349" type="normal" depart="505" departLane="3" route="R0"/>
    <vehicle id="p1_350" type="normal" depart="507" departLane="1" route="R0"/>
    <vehicle id="p2_351" type="normal" depart="507" departLane="2" route="R0"/>
    <vehicle id="p4_352" type="normal" depart="507" departLane="4" route="R0"/>
    <vehicle id="p4_353" type="normal" depart="508" departLane="4" route="R0"/>
    <vehicle id="p2_354" type="normal" depart="510" departLane="2" route="R0"/>
    <vehicle id="p1_355" type="normal" depart="513" departLane="1" route="R0"/>
    <vehicle id="p3_356" type="normal" depart="514" departLane="3" route="R0"/>
    <vehicle id="p3_357" type="normal" depart="515" departLane="3" route="R0"/>
    <vehicle id="p1_358" type="normal" depart="517" departLane="1" route="R0"/>
    <vehicle id="p1_359" type="normal" depart="520" departLane="1" route="R0"/>
    <vehicle id="p3_360" type="normal" depart="521" departLane="3" route="R0"/>
    <vehicle id="p2_361" type="normal" depart="522" departLane="2" route="R0"/>
    <vehicle id="p3_362" type="normal" depart="523" departLane="3" route="R0"/>
    <vehicle id="p3_363" type="normal" depart="524" departLane="3" route="R0"/>
    <vehicle id="p2_364" type="normal" depart="527" departLane="2" route="R0"/>
    <vehicle id="p2_365" type="normal" depart="528" departLane="2" route="R0"/>
    <vehicle id="p2_366" type="normal" depart="530" departLane="2" route="R0"/>
    <vehicle id="p3_367" type="normal" depart="530" departLane="3" route="R0"/>
    <vehicle id="p0_368" type="normal" depart="534" departLane="0" route="R0"/>
    <vehicle id="p3_369" type="normal" depart="534" departLane="3" route="R0"/>
    <vehicle id="p1_370" type="normal" depart="535" departLane="1" route="R0"/>
    <vehicle id="p3_371" type="normal" depart="537" departLane="3" route="R0"/>