<?xml version="1.0" encoding="UTF-8"?>

<!-- generated on 2023-10-25 09:10:13.596921 by osmWebWizard.py v1_18_0+0000-03ecfdea036
<configuration>
    <net-file value="C:\Users\hp\AppData\Roaming\Microsoft\Windows\Start Menu\Programs\SUMO\2023-10-25-09-10-02\osm.net.xml.gz"/>
    <output-trip-file value="C:\Users\hp\AppData\Roaming\Microsoft\Windows\Start Menu\Programs\SUMO\2023-10-25-09-10-02\osm.passenger.trips.xml"/>
    <route-file value="C:\Users\hp\AppData\Roaming\Microsoft\Windows\Start Menu\Programs\SUMO\2023-10-25-09-10-02\osm.passenger.rou.xml"/>
    <prefix value="veh"/>
    <trip-attributes value="departLane=&quot;best&quot;"/>
    <fringe-start-attributes value="departSpeed=&quot;max&quot;"/>
    <vehicle-class value="passenger"/>
    <lanes value="True"/>
    <fringe-factor value="5"/>
    <allow-fringe.min-length value="1000.0"/>
    <via-edge-types value="highway.motorway,highway.motorway_link,highway.trunk_link,highway.primary_link,highway.secondary_link,highway.tertiary_link"/>
    <min-distance value="300.0"/>
    <min-distance.fringe value="10.0"/>
    <remove-loops value="True"/>
    <validate value="True"/>
    <insertion-density value="12.0"/>
</configuration>
-->

<!-- generated on 2023-10-25 09:10:13 by Eclipse SUMO duarouter Version 1.18.0
<configuration xmlns:xsi="http://www.w3.org/2001/XMLSchema-instance" xsi:noNamespaceSchemaLocation="http://sumo.dlr.de/xsd/duarouterConfiguration.xsd">

    <input>
        <net-file value="C:\Users\hp\AppData\Roaming\Microsoft\Windows\Start Menu\Programs\SUMO\2023-10-25-09-10-02\osm.net.xml.gz"/>
        <route-files value="C:\Users\hp\AppData\Roaming\Microsoft\Windows\Start Menu\Programs\SUMO\2023-10-25-09-10-02\osm.passenger.trips.xml"/>
    </input>

    <output>
        <output-file value="C:\Users\hp\AppData\Roaming\Microsoft\Windows\Start Menu\Programs\SUMO\2023-10-25-09-10-02\osm.passenger.trips.xml.tmp"/>
        <alternatives-output value="NUL"/>
        <write-trips value="true"/>
    </output>

    <processing>
        <remove-loops value="true"/>
    </processing>

    <time>
        <begin value="0.0"/>
        <end value="3600.0"/>
    </time>

    <report>
        <no-warnings value="true"/>
        <ignore-errors value="true"/>
        <no-step-log value="true"/>
    </report>

</configuration>
-->

<routes xmlns:xsi="http://www.w3.org/2001/XMLSchema-instance" xsi:noNamespaceSchemaLocation="http://sumo.dlr.de/xsd/routes_file.xsd">
    <vType id="veh_passenger" vClass="passenger"/>
    <trip id="veh0" type="veh_passenger" depart="0.00" departLane="best" from="-5891460#0" to="-5891449#0"/>
    <trip id="veh1" type="veh_passenger" depart="9.90" departLane="best" from="-5891449#15" to="5891442#0"/>
    <trip id="veh2" type="veh_passenger" depart="19.80" departLane="best" from="-5891467#16" to="-28038459#0"/>
    <trip id="veh3" type="veh_passenger" depart="29.71" departLane="best" from="-5993647" to="-1138611035#3"/>
    <trip id="veh4" type="veh_passenger" depart="39.61" departLane="best" from="-5891447#4" to="-797088212"/>
    <trip id="veh5" type="veh_passenger" depart="49.51" departLane="best" from="5891436#1" to="119513524"/>
    <trip id="veh6" type="veh_passenger" depart="59.41" departLane="best" from="-5891447#4" to="121261276#3"/>
    <trip id="veh7" type="veh_passenger" depart="69.31" departLane="best" from="5891462#1" to="-107290580#2"/>
    <trip id="veh8" type="veh_passenger" depart="79.21" departLane="best" from="-5891462#0" to="-5891445#1"/>
    <trip id="veh9" type="veh_passenger" depart="89.12" departLane="best" from="-5891464#0" to="-5891425#4"/>
    <trip id="veh10" type="veh_passenger" depart="99.02" departLane="best" from="5993650#4" to="-5891462#3"/>
    <trip id="veh11" type="veh_passenger" depart="108.92" departLane="best" departSpeed="max" from="-28038460" to="-295383283#1"/>
    <trip id="veh12" type="veh_passenger" depart="118.82" departLane="best" from="5891464#5" to="28038460"/>
    <trip id="veh13" type="veh_passenger" depart="128.72" departLane="best" from="5891462#0" to="5891447#4"/>
    <trip id="veh14" type="veh_passenger" depart="138.63" departLane="best" from="5891467#15" to="119513524"/>
    <trip id="veh15" type="veh_passenger" depart="148.53" departLane="best" from="-5891465#5" to="119513525#8"/>
    <trip id="veh16" type="veh_passenger" depart="158.43" departLane="best" from="5891447#1" to="-119513525#3"/>
    <trip id="veh17" type="veh_passenger" depart="168.33" departLane="best" from="-5891449#11" to="5891460#2"/>
    <trip id="veh18" type="veh_passenger" depart="178.23" departLane="best" from="121261276#4" to="-5891449#0"/>
    <trip id="veh19" type="veh_passenger" depart="188.13" departLane="best" departSpeed="max" from="-28038460" to="-5891449#6"/>
    <trip id="veh20" type="veh_passenger" depart="198.04" departLane="best" departSpeed="max" from="5891425#0" to="-5891465#2"/>
    <trip id="veh21" type="veh_passenger" depart="207.94" departLane="best" from="-5891467#11" to="-5891445#9"/>
    <trip id="veh22" type="veh_passenger" depart="217.84" departLane="best" from="-5891449#6" to="5993649#0"/>
    <trip id="veh23" type="veh_passenger" depart="227.74" departLane="best" from="5891436#0" to="28038460"/>
    <trip id="veh24" type="veh_passenger" depart="237.64" departLane="best" departSpeed="max" from="-5891442#2" to="5891447#3"/>
    <trip id="veh25" type="veh_passenger" depart="247.55" departLane="best" from="5891436#2" to="-5891467#0"/>
    <trip id="veh26" type="veh_passenger" depart="257.45" departLane="best" from="685602958#2" to="295383284#5"/>
    <trip id="veh27" type="veh_passenger" depart="267.35" departLane="best" from="-5891449#11" to="-1138611035#5"/>
    <trip id="veh28" type="veh_passenger" depart="277.25" departLane="best" from="5891462#12" to="5891449#24"/>
    <trip id="veh29" type="veh_passenger" depart="287.15" departLane="best" from="-5891446" to="5993649#4"/>
    <trip id="veh30" type="veh_passenger" depart="297.05" departLane="best" from="-5891442#1" to="-5891467#13"/>
    <trip id="veh31" type="veh_passenger" depart="306.96" departLane="best" from="5993645#0" to="-5993650#0"/>
    <trip id="veh32" type="veh_passenger" depart="316.86" departLane="best" from="121261276#6" to="5891449#22"/>
    <trip id="veh33" type="veh_passenger" depart="326.76" departLane="best" departSpeed="max" from="-5891467#20" to="5891447#4"/>
    <trip id="veh34" type="veh_passenger" depart="336.66" departLane="best" from="28038459#2" to="-119513525#4"/>
    <trip id="veh35" type="veh_passenger" depart="346.56" departLane="best" from="295383283#2" to="295383283#5"/>
    <trip id="veh36" type="veh_passenger" depart="356.47" departLane="best" from="5891461#2" to="5891467#9"/>
    <trip id="veh37" type="veh_passenger" depart="366.37" departLane="best" from="119513525#7" to="-5891467#0"/>
    <trip id="veh38" type="veh_passenger" depart="376.27" departLane="best" from="958785767#0" to="107290581#1"/>
    <trip id="veh39" type="veh_passenger" depart="386.17" departLane="best" from="5993651#5" to="5891465#0"/>
    <trip id="veh40" type="veh_passenger" depart="396.07" departLane="best" from="-107290581#0" to="5891446"/>
    <trip id="veh41" type="veh_passenger" depart="405.97" departLane="best" from="5891445#2" to="-1138611035#1"/>
    <trip id="veh42" type="veh_passenger" depart="415.88" departLane="best" from="-5891449#6" to="295383284#5"/>
    <trip id="veh43" type="veh_passenger" depart="425.78" departLane="best" from="5993651#2" to="-5993650#2"/>
    <trip id="veh44" type="veh_passenger" depart="435.68" departLane="best" from="5891467#1" to="5891449#22"/>
    <trip id="veh45" type="veh_passenger" depart="445.58" departLane="best" from="-107290581#0" to="-5891445#0"/>
    <trip id="veh46" type="veh_passenger" depart="455.48" departLane="best" from="-5891467#9" to="5891465#4"/>
    <trip id="veh47" type="veh_passenger" depart="465.39" departLane="best" from="-5891461#5" to="295383284#3"/>
    <trip id="veh48" type="veh_passenger" depart="475.29" departLane="best" from="295383284#5" to="-5891425#3"/>
    <trip id="veh49" type="veh_passenger" depart="485.19" departLane="best" from="-5891449#4" to="-1138611035#3"/>
    <trip id="veh50" type="veh_passenger" depart="495.09" departLane="best" from="5891460#2" to="107290581#1"/>
    <trip id="veh51" type="veh_passenger" depart="504.99" departLane="best" from="-107290580#0" to="5891462#11"/>
    <trip id="veh52" type="veh_passenger" depart="514.89" departLane="best" departSpeed="max" from="-107290581#1" to="5993645#2"/>
    <trip id="veh53" type="veh_passenger" depart="524.80" departLane="best" from="-5891467#10" to="5891462#14"/>
    <trip id="veh54" type="veh_passenger" depart="534.70" departLane="best" from="5891467#10" to="5993649#6"/>
    <trip id="veh55" type="veh_passenger" depart="544.60" departLane="best" from="-193292068" to="-5993654#0"/>
    <trip id="veh56" type="veh_passenger" depart="554.50" departLane="best" from="-119513525#9" to="5891449#21"/>
    <trip id="veh57" type="veh_passenger" depart="564.40" departLane="best" from="-685602958#0" to="119513524"/>
    <trip id="veh58" type="veh_passenger" depart="574.31" departLane="best" from="5891449#5" to="-5891465#5"/>
    <trip id="veh59" type="veh_passenger" depart="584.21" departLane="best" from="-5993647" to="-5891447#0"/>
    <trip id="veh60" type="veh_passenger" depart="594.11" departLane="best" from="-119513525#5" to="5891447#4"/>
    <trip id="veh61" type="veh_passenger" depart="604.01" departLane="best" from="5891445#6" to="5891461#6"/>
    <trip id="veh62" type="veh_passenger" depart="613.91" departLane="best" from="797088212" to="406555622#1"/>
    <trip id="veh63" type="veh_passenger" depart="623.81" departLane="best" from="-5993649#7" to="107290580#3"/>
    <trip id="veh64" type="veh_passenger" depart="633.72" departLane="best" from="-295383284#0" to="-5891449#0"/>
    <trip id="veh65" type="veh_passenger" depart="643.62" departLane="best" from="-5891462#9" to="121261276#3"/>
    <trip id="veh66" type="veh_passenger" depart="653.52" departLane="best" from="-5891449#12" to="-5891447#4"/>
    <trip id="veh67" type="veh_passenger" depart="663.42" departLane="best" from="-121261276#0" to="295383284#0"/>
    <trip id="veh68" type="veh_passenger" depart="673.32" departLane="best" from="-5891449#11" to="5891467#20"/>
    <trip id="veh69" type="veh_passenger" depart="683.22" departLane="best" from="5891465#4" to="-121261276#5"/>
    <trip id="veh70" type="veh_passenger" depart="693.13" departLane="best" from="-5891449#17" to="5891436#0"/>
    <trip id="veh71" type="veh_passenger" depart="703.03" departLane="best" from="5891462#0" to="-5891445#11"/>
    <trip id="veh72" type="veh_passenger" depart="712.93" departLane="best" departSpeed="max" from="-28038460" to="5993645#3"/>
    <trip id="veh73" type="veh_passenger" depart="722.83" departLane="best" from="-5993647" to="-5993650#3"/>
    <trip id="veh74" type="veh_passenger" depart="732.73" departLane="best" from="-5891449#11" to="-5891436#2"/>
    <trip id="veh75" type="veh_passenger" depart="742.64" departLane="best" from="5891467#4" to="-5891462#4"/>
    <trip id="veh76" type="veh_passenger" depart="752.54" departLane="best" from="-5891445#11" to="-5993649#7"/>
    <trip id="veh77" type="veh_passenger" depart="762.44" departLane="best" from="-5993647" to="-5891449#6"/>
    <trip id="veh78" type="veh_passenger" depart="772.34" departLane="best" from="-5891449#21" to="5891467#9"/>
    <trip id="veh79" type="veh_passenger" depart="782.24" departLane="best" from="121261276#1" to="119513525#6"/>
    <trip id="veh80" type="veh_passenger" depart="792.14" departLane="best" from="958785767#1" to="5891462#2"/>
    <trip id="veh81" type="veh_passenger" depart="802.05" departLane="best" from="5993651#4" to="5993645#1"/>
    <trip id="veh82" type="veh_passenger" depart="811.95" departLane="best" from="5891464#5" to="-5891442#1"/>
    <trip id="veh83" type="veh_passenger" depart="821.85" departLane="best" from="-958785767#0" to="5891447#0"/>
    <trip id="veh84" type="veh_passenger" depart="831.75" departLane="best" from="5891467#3" to="-119513525#9"/>
    <trip id="veh85" type="veh_passenger" depart="841.65" departLane="best" from="-5891467#15" to="685602958#0"/>
    <trip id="veh86" type="veh_passenger" depart="851.56" departLane="best" from="5993651#3" to="-5891467#9"/>
    <trip id="veh87" type="veh_passenger" depart="861.46" departLane="best" from="121261276#3" to="5891445#9"/>
    <trip id="veh88" type="veh_passenger" depart="871.36" departLane="best" from="-119513525#7" to="5891449#15"/>
    <trip id="veh89" type="veh_passenger" depart="881.26" departLane="best" from="-119513525#4" to="121261276#1"/>
    <trip id="veh90" type="veh_passenger" depart="891.16" departLane="best" departSpeed="max" from="1138611035#0" to="5891464#1"/>
    <trip id="veh91" type="veh_passenger" depart="901.06" departLane="best" from="-5891436#0" to="5993651#1"/>
    <trip id="veh92" type="veh_passenger" depart="910.97" departLane="best" from="121261276#4" to="-5891445#1"/>
    <trip id="veh93" type="veh_passenger" depart="920.87" departLane="best" from="-295383283#5" to="5891442#0"/>
    <trip id="veh94" type="veh_passenger" depart="930.77" departLane="best" from="-5891449#14" to="295383284#5"/>
    <trip id="veh95" type="veh_passenger" depart="940.67" departLane="best" from="5891467#15" to="-5891449#14"/>
    <trip id="veh96" type="veh_passenger" depart="950.57" departLane="best" from="-295383283#5" to="-295383283#1"/>
    <trip id="veh97" type="veh_passenger" depart="960.48" departLane="best" from="-5993645#3" to="121261276#1"/>
    <trip id="veh98" type="veh_passenger" depart="970.38" departLane="best" from="119513525#0" to="5993649#0"/>
    <trip id="veh99" type="veh_passenger" depart="980.28" departLane="best" from="5891449#17" to="5891467#13"/>
    <trip id="veh100" type="veh_passenger" depart="990.18" departLane="best" departSpeed="max" from="5891445#0" to="5891461#1"/>
    <trip id="veh101" type="veh_passenger" depart="1000.08" departLane="best" from="-121261276#1" to="-5993650#0"/>
    <trip id="veh102" type="veh_passenger" depart="1009.98" departLane="best" from="-121261276#1" to="5891447#0"/>
    <trip id="veh103" type="veh_passenger" depart="1019.89" departLane="best" from="-5891449#5" to="5993647"/>
    <trip id="veh104" type="veh_passenger" depart="1029.79" departLane="best" from="-5891467#11" to="-5891436#0"/>
    <trip id="veh105" type="veh_passenger" depart="1039.69" departLane="best" from="-5891462#7" to="-5891445#2"/>
    <trip id="veh106" type="veh_passenger" depart="1049.59" departLane="best" from="-295383284#7" to="-685602958#1"/>
    <trip id="veh107" type="veh_passenger" depart="1059.49" departLane="best" from="-5891442#0" to="-107290580#3"/>
    <trip id="veh108" type="veh_passenger" depart="1069.40" departLane="best" from="5891444#3" to="-5993649#3"/>
    <trip id="veh109" type="veh_passenger" depart="1079.30" departLane="best" from="-295383284#7" to="-295383284#2"/>
    <trip id="veh110" type="veh_passenger" depart="1089.20" departLane="best" from="295383283#1" to="119513524"/>
    <trip id="veh111" type="veh_passenger" depart="1099.10" departLane="best" from="-5891449#9" to="28038460"/>
    <trip id="veh112" type="veh_passenger" depart="1109.00" departLane="best" departSpeed="max" from="5891449#0" to="-5891445#7"/>
    <trip id="veh113" type="veh_passenger" depart="1118.90" departLane="best" departSpeed="max" from="5891425#0" to="5891449#22"/>
    <trip id="veh114" type="veh_passenger" depart="1128.81" departLane="best" from="-958785767#1" to="5891467#20"/>
    <trip id="veh115" type="veh_passenger" depart="1138.71" departLane="best" from="5891464#4" to="-28038461#1"/>
    <trip id="veh116" type="veh_passenger" depart="1148.61" departLane="best" from="-5993647" to="-5891449#5"/>
    <trip id="veh117" type="veh_passenger" depart="1158.51" departLane="best" from="107290580#1" to="-5891449#3"/>
    <trip id="veh118" type="veh_passenger" depart="1168.41" departLane="best" departSpeed="max" from="5891425#0" to="5891449#21"/>
    <trip id="veh119" type="veh_passenger" depart="1178.32" departLane="best" from="-5891449#18" to="119513524"/>
    <trip id="veh120" type="veh_passenger" depart="1188.22" departLane="best" from="-5993649#1" to="-107290580#4"/>
    <trip id="veh121" type="veh_passenger" depart="1198.12" departLane="best" from="-121261276#2" to="-5891467#12"/>
    <trip id="veh122" type="veh_passenger" depart="1208.02" departLane="best" from="5891467#4" to="119513524"/>
    <trip id="veh123" type="veh_passenger" depart="1217.92" departLane="best" from="-5891462#8" to="121261276#0"/>
    <trip id="veh124" type="veh_passenger" depart="1227.82" departLane="best" departSpeed="max" from="-406555622#1" to="-306263671"/>
    <trip id="veh125" type="veh_passenger" depart="1237.73" departLane="best" from="5891462#1" to="5891467#2"/>
    <trip id="veh126" type="veh_passenger" depart="1247.63" departLane="best" from="5891467#2" to="-5891446"/>
    <trip id="veh127" type="veh_passenger" depart="1257.53" departLane="best" from="-5891449#21" to="295383283#4"/>
    <trip id="veh128" type="veh_passenger" depart="1267.43" departLane="best" from="5891460#3" to="5891467#12"/>
    <trip id="veh129" type="veh_passenger" depart="1277.33" departLane="best" from="5891467#6" to="295383283#2"/>
    <trip id="veh130" type="veh_passenger" depart="1287.24" departLane="best" from="-5891425#3" to="5993645#2"/>
    <trip id="veh131" type="veh_passenger" depart="1297.14" departLane="best" from="-5891465#6" to="5993654#1"/>
    <trip id="veh132" type="veh_passenger" depart="1307.04" departLane="best" from="-5891462#10" to="5891467#11"/>
    <trip id="veh133" type="veh_passenger" depart="1316.94" departLane="best" from="-1138611035#1" to="5891449#10"/>
    <trip id="veh134" type="veh_passenger" depart="1326.84" departLane="best" from="-5891462#7" to="5993645#3"/>
    <trip id="veh135" type="veh_passenger" depart="1336.74" departLane="best" from="-5891461#7" to="5891465#1"/>
    <trip id="veh136" type="veh_passenger" depart="1346.65" departLane="best" from="5891462#10" to="5891449#24"/>
    <trip id="veh137" type="veh_passenger" depart="1356.55" departLane="best" from="5891461#0" to="295383283#6"/>
    <trip id="veh138" type="veh_passenger" depart="1366.45" departLane="best" departSpeed="max" from="5891467#0" to="5891464#5"/>
    <trip id="veh139" type="veh_passenger" depart="1376.35" departLane="best" from="-5891447#5" to="5891461#8"/>
    <trip id="veh140" type="veh_passenger" depart="1386.25" departLane="best" from="-5993651#5" to="-5891461#3"/>
    <trip id="veh141" type="veh_passenger" depart="1396.16" departLane="best" from="-5891461#4" to="-5891449#0"/>
    <trip id="veh142" type="veh_passenger" depart="1406.06" departLane="best" departSpeed="max" from="-107290581#1" to="-5891445#2"/>
    <trip id="veh143" type="veh_passenger" depart="1415.96" departLane="best" from="5891462#4" to="5891465#1"/>
    <trip id="veh144" type="veh_passenger" depart="1425.86" departLane="best" from="5993651#3" to="-5891449#6"/>
    <trip id="veh145" type="veh_passenger" depart="1435.76" departLane="best" from="5891425#2" to="-5891467#15"/>
    <trip id="veh146" type="veh_passenger" depart="1445.66" departLane="best" from="5993654#3" to="1138611035#1"/>
    <trip id="veh147" type="veh_passenger" depart="1455.57" departLane="best" departSpeed="max" from="5993650#0" to="295383284#2"/>
    <trip id="veh148" type="veh_passenger" depart="1465.47" departLane="best" from="5993651#5" to="-5891445#0"/>
    <trip id="veh149" type="veh_passenger" depart="1475.37" departLane="best" from="5993651#1" to="5891449#23"/>
    <trip id="veh150" type="veh_passenger" depart="1485.27" departLane="best" from="295383283#1" to="-5993649#0"/>
    <trip id="veh151" type="veh_passenger" depart="1495.17" departLane="best" from="5891449#11" to="-5891461#7"/>
    <trip id="veh152" type="veh_passenger" depart="1505.08" departLane="best" from="-295383284#3" to="107290580#0"/>
    <trip id="veh153" type="veh_passenger" depart="1514.98" departLane="best" from="-5891449#23" to="-5891445#4"/>
    <trip id="veh154" type="veh_passenger" depart="1524.88" departLane="best" from="-107290580#0" to="5993645#0"/>
    <trip id="veh155" type="veh_passenger" depart="1534.78" departLane="best" from="-119513525#5" to="5891445#9"/>
    <trip id="veh156" type="veh_passenger" depart="1544.68" departLane="best" from="-5891449#18" to="-5891436#1"/>
    <trip id="veh157" type="veh_passenger" depart="1554.58" departLane="best" from="-5891465#6" to="-121261276#5"/>
    <trip id="veh158" type="veh_passenger" depart="1564.49" departLane="best" departSpeed="max" from="5891445#0" to="5891462#14"/>
    <trip id="veh159" type="veh_passenger" depart="1574.39" departLane="best" departSpeed="max" from="5891449#0" to="5891461#1"/>
    <trip id="veh160" type="veh_passenger" depart="1584.29" departLane="best" from="5891462#1" to="-5891467#2"/>
    <trip id="veh161" type="veh_passenger" depart="1594.19" departLane="best" from="5891467#4" to="5891460#5"/>
    <trip id="veh162" type="veh_passenger" depart="1604.09" departLane="best" from="-295383284#3" to="-5891467#7"/>
    <trip id="veh163" type="veh_passenger" depart="1614.00" departLane="best" departSpeed="max" from="5993650#0" to="5891442#1"/>
    <trip id="veh164" type="veh_passenger" depart="1623.90" departLane="best" from="5891467#4" to="-28038461#1"/>
    <trip id="veh165" type="veh_passenger" depart="1633.80" departLane="best" from="-5891461#6" to="119513524"/>
    <trip id="veh166" type="veh_passenger" depart="1643.70" departLane="best" from="-107290580#0" to="-5891460#1"/>
    <trip id="veh167" type="veh_passenger" depart="1653.60" departLane="best" from="-5891442#0" to="-5993650#2"/>
    <trip id="veh168" type="veh_passenger" depart="1663.50" departLane="best" from="5993650#2" to="-5891447#0"/>
    <trip id="veh169" type="veh_passenger" depart="1673.41" departLane="best" from="-5993654#4" to="5891467#20"/>
    <trip id="veh170" type="veh_passenger" depart="1683.31" departLane="best" from="-5891461#4" to="-5891444#0"/>
    <trip id="veh171" type="veh_passenger" depart="1693.21" departLane="best" from="-121261276#6" to="107290580#2"/>
    <trip id="veh172" type="veh_passenger" depart="1703.11" departLane="best" departSpeed="max" from="5891425#0" to="-5891462#2"/>
    <trip id="veh173" type="veh_passenger" depart="1713.01" departLane="best" departSpeed="max" from="5891445#0" to="-5891449#0"/>
    <trip id="veh174" type="veh_passenger" depart="1722.92" departLane="best" from="-5891445#5" to="-1138611035#1"/>
    <trip id="veh175" type="veh_passenger" depart="1732.82" departLane="best" from="5891449#2" to="-5993651#2"/>
    <trip id="veh176" type="veh_passenger" depart="1742.72" departLane="best" from="5891465#0" to="-121261276#6"/>
    <trip id="veh177" type="veh_passenger" depart="1752.62" departLane="best" from="107290580#2" to="-5891449#13"/>
    <trip id="veh178" type="veh_passenger" depart="1762.52" departLane="best" from="-5891442#1" to="-107290580#2"/>
    <trip id="veh179" type="veh_passenger" depart="1772.42" departLane="best" from="-28038462" to="-5993645#0"/>
    <trip id="veh180" type="veh_passenger" depart="1782.33" departLane="best" departSpeed="max" from="-5891442#2" to="5993650#4"/>
    <trip id="veh181" type="veh_passenger" depart="1792.23" departLane="best" from="1138611035#3" to="119513525#6"/>
    <trip id="veh182" type="veh_passenger" depart="1802.13" departLane="best" from="-5891449#21" to="-5891462#9"/>
    <trip id="veh183" type="veh_passenger" depart="1812.03" departLane="best" from="-5993651#4" to="-5891461#2"/>
    <trip id="veh184" type="veh_passenger" depart="1821.93" departLane="best" departSpeed="max" from="5891445#0" to="-685602958#1"/>
    <trip id="veh185" type="veh_passenger" depart="1831.83" departLane="best" from="-295383283#5" to="-5993650#1"/>
    <trip id="veh186" type="veh_passenger" depart="1841.74" departLane="best" from="-5891467#16" to="28038460"/>
    <trip id="veh187" type="veh_passenger" depart="1851.64" departLane="best" departSpeed="max" from="5891449#0" to="-797088212"/>
    <trip id="veh188" type="veh_passenger" depart="1861.54" departLane="best" from="5891462#6" to="119513524"/>
    <trip id="veh189" type="veh_passenger" depart="1871.44" departLane="best" from="-5891467#19" to="5891449#13"/>
    <trip id="veh190" type="veh_passenger" depart="1881.34" departLane="best" from="685602958#0" to="5891449#20"/>
    <trip id="veh191" type="veh_passenger" depart="1891.25" departLane="best" from="-5891449#20" to="-295383284#3"/>
    <trip id="veh192" type="veh_passenger" depart="1901.15" departLane="best" from="5891449#5" to="-107290580#4"/>
    <trip id="veh193" type="veh_passenger" depart="1911.05" departLane="best" departSpeed="max" from="5891425#0" to="5891449#4"/>
    <trip id="veh194" type="veh_passenger" depart="1920.95" departLane="best" from="-121261276#3" to="-5891460#0"/>
    <trip id="veh195" type="veh_passenger" depart="1930.85" departLane="best" from="-5891449#9" to="-5891462#1"/>
    <trip id="veh196" type="veh_passenger" depart="1940.75" departLane="best" from="-119513525#6" to="-5891425#0"/>
    <trip id="veh197" type="veh_passenger" depart="1950.66" departLane="best" from="-5891449#12" to="-5891444#1"/>
    <trip id="veh198" type="veh_passenger" depart="1960.56" departLane="best" from="-5891447#3" to="-121261276#2"/>
    <trip id="veh199" type="veh_passenger" depart="1970.46" departLane="best" from="5891467#6" to="-1138611035#5"/>
    <trip id="veh200" type="veh_passenger" depart="1980.36" departLane="best" from="-5993645#1" to="5891445#8"/>
    <trip id="veh201" type="veh_passenger" depart="1990.26" departLane="best" from="-28038462" to="-5891444#3"/>
    <trip id="veh202" type="veh_passenger" depart="2000.17" departLane="best" from="-5993645#2" to="5891449#15"/>
    <trip id="veh203" type="veh_passenger" depart="2010.07" departLane="best" from="119513525#9" to="28038460"/>
    <trip id="veh204" type="veh_passenger" depart="2019.97" departLane="best" from="-5993649#6" to="-1138611035#3"/>
    <trip id="veh205" type="veh_passenger" depart="2029.87" departLane="best" from="-5891462#8" to="5891442#2"/>
    <trip id="veh206" type="veh_passenger" depart="2039.77" departLane="best" from="5891467#5" to="-5891442#0"/>
    <trip id="veh207" type="veh_passenger" depart="2049.67" departLane="best" from="5993654#2" to="-306263671"/>
    <trip id="veh208" type="veh_passenger" depart="2059.58" departLane="best" departSpeed="max" from="306263671" to="-1138611035#2"/>
    <trip id="veh209" type="veh_passenger" depart="2069.48" departLane="best" departSpeed="max" from="-5891467#20" to="-119513525#2"/>
    <trip id="veh210" type="veh_passenger" depart="2079.38" departLane="best" from="1138611035#2" to="-295383284#6"/>
    <trip id="veh211" type="veh_passenger" depart="2089.28" departLane="best" from="-406555622#0" to="-5993650#1"/>
    <trip id="veh212" type="veh_passenger" depart="2099.18" departLane="best" from="119513525#11" to="-5891467#0"/>
    <trip id="veh213" type="veh_passenger" depart="2109.09" departLane="best" from="-5891446" to="5891462#12"/>
    <trip id="veh214" type="veh_passenger" depart="2118.99" departLane="best" from="5891449#3" to="-5891467#0"/>
    <trip id="veh215" type="veh_passenger" depart="2128.89" departLane="best" from="-5891449#22" to="-28038459#0"/>
    <trip id="veh216" type="veh_passenger" depart="2138.79" departLane="best" departSpeed="max" from="-107290581#1" to="-1138611035#3"/>
    <trip id="veh217" type="veh_passenger" depart="2148.69" departLane="best" from="958785767#1" to="-5891464#0"/>
    <trip id="veh218" type="veh_passenger" depart="2158.59" departLane="best" from="5891436#1" to="5891449#8"/>
    <trip id="veh219" type="veh_passenger" depart="2168.50" departLane="best" from="5891436#2" to="5891449#19"/>
    <trip id="veh220" type="veh_passenger" depart="2178.40" departLane="best" departSpeed="max" from="5993650#0" to="-5891445#5"/>
    <trip id="veh221" type="veh_passenger" depart="2188.30" departLane="best" departSpeed="max" from="-107290581#1" to="5891425#2"/>
    <trip id="veh222" type="veh_passenger" depart="2198.20" departLane="best" from="295383284#2" to="5891436#0"/>
    <trip id="veh223" type="veh_passenger" depart="2208.10" departLane="best" from="193292068" to="-5891447#3"/>
    <trip id="veh224" type="veh_passenger" depart="2218.01" departLane="best" from="5891446" to="5891449#24"/>
    <trip id="veh225" type="veh_passenger" depart="2227.91" departLane="best" from="-5891442#1" to="28038460"/>
    <trip id="veh226" type="veh_passenger" depart="2237.81" departLane="best" from="-5891449#20" to="-295383284#2"/>
    <trip id="veh227" type="veh_passenger" depart="2247.71" departLane="best" from="-5891462#14" to="-5993651#2"/>
    <trip id="veh228" type="veh_passenger" depart="2257.61" departLane="best" from="295383283#1" to="-1138611035#1"/>
    <trip id="veh229" type="veh_passenger" depart="2267.51" departLane="best" from="-5891462#10" to="5891442#1"/>
    <trip id="veh230" type="veh_passenger" depart="2277.42" departLane="best" from="5993650#4" to="-5891467#13"/>
    <trip id="veh231" type="veh_passenger" depart="2287.32" departLane="best" departSpeed="max" from="5891449#0" to="-193292068"/>
    <trip id="veh232" type="veh_passenger" depart="2297.22" departLane="best" from="-5891445#6" to="295383283#5"/>
    <trip id="veh233" type="veh_passenger" depart="2307.12" departLane="best" departSpeed="max" from="-28038460" to="-5891449#3"/>
    <trip id="veh234" type="veh_passenger" depart="2317.02" departLane="best" from="-5891465#0" to="28038459#1"/>
    <trip id="veh235" type="veh_passenger" depart="2326.93" departLane="best" from="5993649#3" to="5891465#4"/>
    <trip id="veh236" type="veh_passenger" depart="2336.83" departLane="best" departSpeed="max" from="1138611035#0" to="-5891462#6"/>