<?xml version="1.0" encoding="UTF-8"?>

<!-- generated on 2023-10-29 09:45:12 by Eclipse SUMO netedit Version 1.18.0
-->

<additional xmlns:xsi="http://www.w3.org/2001/XMLSchema-instance" xsi:noNamespaceSchemaLocation="http://sumo.dlr.de/xsd/additional_file.xsd">
    <!-- Detectors -->
    <inductionLoop id="e1_0" lane="-E11_1" pos="486.40" period="300.00" file="e1_0.xml"/>
    <inductionLoop id="e1_1" lane="-E11_0" pos="486.40" period="300.00" file="e1_1.xml"/>
    <inductionLoop id="e1_10" lane="-E6_2" pos="586.40" period="300.00" file="e1_10.xml"/>
    <inductionLoop id="e1_11" lane="-E6_0" pos="586.40" period="300.00" file="e1_11.xml"/>
    <inductionLoop id="e1_12" lane="-E15_0" pos="586.40" period="300.00" file="e1_12.xml"/>
    <inductionLoop id="e1_13" lane="-E15_1" pos="586.40" period="300.00" file="e1_13.xml"/>
    <inductionLoop id="e1_14" lane="-E15_2" pos="586.40" period="300.00" file="e1_14.xml"/>
    <inductionLoop id="e1_15" lane="E11_2" pos="486.40" period="300.00" file="e1_15.xml"/>
    <inductionLoop id="e1_16" lane="E11_1" pos="486.40" period="300.00" file="e1_16.xml"/>
    <inductionLoop id="e1_17" lane="E11_0" pos="486.40" period="300.00" file="e1_17.xml"/>
    <inductionLoop id="e1_18" lane="-E12_2" pos="200.00" period="300.00" file="e1_18.xml"/>
    <inductionLoop id="e1_19" lane="-E12_1" pos="200.00" period="300.00" file="e1_19.xml"/>
    <inductionLoop id="e1_2" lane="-E11_2" pos="486.40" period="300.00" file="e1_2.xml"/>
    <inductionLoop id="e1_20" lane="-E12_0" pos="200.00" period="300.00" file="e1_20.xml"/>
    <inductionLoop id="e1_21" lane="E14_0" pos="486.40" period="300.00" file="e1_21.xml"/>
    <inductionLoop id="e1_22" lane="E14_1" pos="486.40" period="300.00" file="e1_22.xml"/>
    <inductionLoop id="e1_23" lane="E14_2" pos="486.40" period="300.00" file="e1_23.xml"/>
    <inductionLoop id="e1_24" lane="E13_2" pos="1086.40" period="300.00" file="e1_24.xml"/>
    <inductionLoop id="e1_25" lane="E13_1" pos="1086.40" period="300.00" file="e1_25.xml"/>
    <inductionLoop id="e1_26" lane="E13_0" pos="1086.40" period="300.00" file="e1_26.xml"/>
    <inductionLoop id="e1_27" lane="-E16_2" pos="200.00" period="300.00" file="e1_27.xml"/>
    <inductionLoop id="e1_28" lane="-E16_1" pos="200.00" period="300.00" file="e1_28.xml"/>
    <inductionLoop id="e1_29" lane="-E16_0" pos="200.00" period="300.00" file="e1_29.xml"/>
    <inductionLoop id="e1_3" lane="-E10_1" pos="200.00" period="300.00" file="e1_3.xml"/>
    <inductionLoop id="e1_30" lane="-E17_0" pos="300.00" period="300.00" file="e1_30.xml"/>
    <inductionLoop id="e1_31" lane="-E17_1" pos="300.00" period="300.00" file="e1_31.xml"/>
    <inductionLoop id="e1_32" lane="-E17_2" pos="300.00" period="300.00" file="e1_32.xml"/>
    <inductionLoop id="e1_33" lane="-E18_1" pos="586.40" period="300.00" file="e1_33.xml"/>
    <inductionLoop id="e1_34" lane="-E18_2" pos="586.40" period="300.00" file="e1_34.xml"/>
    <inductionLoop id="e1_35" lane="-E18_0" pos="586.40" period="300.00" file="e1_35.xml"/>
    <inductionLoop id="e1_36" lane="E19_2" pos="586.40" period="300.00" file="e1_36.xml"/>
    <inductionLoop id="e1_37" lane="E19_1" pos="586.40" period="300.00" file="e1_37.xml"/>
    <inductionLoop id="e1_38" lane="E19_0" pos="586.40" period="300.00" file="e1_38.xml"/>
    <inductionLoop id="e1_39" lane="-E21_0" pos="300.00" period="300.00" file="e1_39.xml"/>
    <inductionLoop id="e1_4" lane="-E10_2" pos="200.00" period="300.00" file="e1_4.xml"/>
    <inductionLoop id="e1_40" lane="-E21_1" pos="300.00" period="300.00" file="e1_40.xml"/>
    <inductionLoop id="e1_41" lane="-E21_2" pos="300.00" period="300.00" file="e1_41.xml"/>
    <inductionLoop id="e1_42" lane="E20_0" pos="200.00" period="300.00" file="e1_42.xml"/>
    <inductionLoop id="e1_43" lane="E20_1" pos="200.00" period="300.00" file="e1_43.xml"/>
    <inductionLoop id="e1_44" lane="E20_2" pos="200.00" period="300.00" file="e1_44.xml"/>
    <inductionLoop id="e1_45" lane="-E22_2" pos="486.40" period="300.00" file="e1_45.xml"/>
    <inductionLoop id="e1_46" lane="-E22_1" pos="486.40" period="300.00" file="e1_46.xml"/>
    <inductionLoop id="e1_47" lane="-E22_1" pos="486.40" period="300.00" file="e1_47.xml"/>
    <inductionLoop id="e1_48" lane="-E22_0" pos="486.40" period="300.00" file="e1_48.xml"/>
    <inductionLoop id="e1_49" lane="E22_0" pos="486.40" period="300.00" file="e1_49.xml"/>
    <inductionLoop id="e1_5" lane="-E10_0" pos="200.00" period="300.00" file="e1_5.xml"/>
    <inductionLoop id="e1_50" lane="E22_1" pos="486.40" period="300.00" file="e1_50.xml"/>
    <inductionLoop id="e1_51" lane="E22_2" pos="486.40" period="300.00" file="e1_51.xml"/>
    <inductionLoop id="e1_52" lane="-E25_0" pos="200.00" period="300.00" file="e1_52.xml"/>
    <inductionLoop id="e1_53" lane="-E25_0" pos="200.00" period="300.00" file="e1_53.xml"/>
    <inductionLoop id="e1_54" lane="-E25_1" pos="200.00" period="300.00" file="e1_54.xml"/>
    <inductionLoop id="e1_55" lane="-E25_2" pos="200.00" period="300.00" file="e1_55.xml"/>
    <inductionLoop id="e1_56" lane="E24_1" pos="486.40" period="300.00" file="e1_56.xml"/>
    <inductionLoop id="e1_57" lane="E24_0" pos="486.40" period="300.00" file="e1_57.xml"/>
    <inductionLoop id="e1_58" lane="E24_2" pos="486.40" period="300.00" file="e1_58.xml"/>
    <inductionLoop id="e1_59" lane="E15_2" pos="586.40" period="300.00" file="e1_59.xml"/>
    <inductionLoop id="e1_6" lane="-E9_2" pos="300.00" period="300.00" file="e1_6.xml"/>
    <inductionLoop id="e1_60" lane="E15_0" pos="586.40" period="300.00" file="e1_60.xml"/>
    <inductionLoop id="e1_61" lane="E15_1" pos="586.40" period="300.00" file="e1_61.xml"/>
    <inductionLoop id="e1_62" lane="E6_2" pos="586.40" period="300.00" file="e1_62.xml"/>
    <inductionLoop id="e1_63" lane="E6_1" pos="586.40" period="300.00" file="e1_63.xml"/>
    <inductionLoop id="e1_64" lane="E6_0" pos="586.40" period="300.00" file="e1_64.xml"/>
    <inductionLoop id="e1_65" lane="E23_0" pos="1086.40" period="300.00" file="e1_65.xml"/>
    <inductionLoop id="e1_66" lane="E23_1" pos="1086.40" period="300.00" file="e1_66.xml"/>
    <inductionLoop id="e1_67" lane="E23_2" pos="1086.40" period="300.00" file="e1_67.xml"/>
    <inductionLoop id="e1_68" lane="-E8_0" pos="200.00" period="300.00" file="e1_68.xml"/>
    <inductionLoop id="e1_69" lane="-E8_1" pos="200.00" period="300.00" file="e1_69.xml"/>
    <inductionLoop id="e1_7" lane="-E9_1" pos="300.00" period="300.00" file="e1_7.xml"/>
    <inductionLoop id="e1_70" lane="-E8_1" pos="200.00" period="300.00" file="e1_70.xml"/>
    <inductionLoop id="e1_71" lane="-E8_2" pos="200.00" period="300.00" file="e1_71.xml"/>
    <inductionLoop id="e1_72" lane="-E7_2" pos="300.00" period="300.00" file="e1_72.xml"/>
    <inductionLoop id="e1_73" lane="-E7_0" pos="300.00" period="300.00" file="e1_73.xml"/>
    <inductionLoop id="e1_74" lane="-E7_1" pos="300.00" period="300.00" file="e1_74.xml"/>
    <inductionLoop id="e1_8" lane="-E9_0" pos="300.00" period="300.00" file="e1_8.xml"/>
    <inductionLoop id="e1_9" lane="-E6_1" pos="586.40" period="300.00" file="e1_9.xml"/>
</additional>
