<?xml version="1.0" encoding="UTF-8"?>

<!-- generated on 2023-12-23 11:46:08 by Eclipse SUMO netedit Version 1.14.1
<configuration xmlns:xsi="http://www.w3.org/2001/XMLSchema-instance" xsi:noNamespaceSchemaLocation="http://sumo.dlr.de/xsd/netconvertConfiguration.xsd">

    <input>
        <sumo-net-file value="C:\Users\ravip\OneDrive\Documents\SEM-7\MP\susang\final\final.net.xml"/>
    </input>

    <output>
        <output-file value="C:\Users\ravip\OneDrive\Documents\SEM-7\MP\susang\final\final.net.xml"/>
    </output>

    <processing>
        <geometry.min-radius.fix.railways value="false"/>
        <geometry.max-grade.fix value="false"/>
        <offset.disable-normalization value="true"/>
        <lefthand value="false"/>
    </processing>

    <junctions>
        <no-turnarounds value="true"/>
        <junctions.corner-detail value="5"/>
        <junctions.limit-turn-speed value="5.5"/>
        <rectangular-lane-cut value="false"/>
    </junctions>

    <pedestrian>
        <walkingareas value="false"/>
    </pedestrian>

</configuration>
-->

<net version="1.9" junctionCornerDetail="5" limitTurnSpeed="5.50" xmlns:xsi="http://www.w3.org/2001/XMLSchema-instance" xsi:noNamespaceSchemaLocation="http://sumo.dlr.de/xsd/net_file.xsd">

    <location netOffset="0.00,0.00" convBoundary="-300.00,-600.00,1700.00,700.00" origBoundary="-10000000000.00,-10000000000.00,10000000000.00,10000000000.00" projParameter="!"/>

    <edge id=":J10_0" function="internal">
        <lane id=":J10_0_0" index="0" speed="6.51" length="9.03" shape="92.00,413.60 91.65,411.15 90.60,409.40 88.85,408.35 86.40,408.00"/>
    </edge>
    <edge id=":J10_1" function="internal">
        <lane id=":J10_1_0" index="0" speed="13.89" length="27.20" shape="92.00,413.60 92.00,386.40"/>
        <lane id=":J10_1_1" index="1" speed="13.89" length="27.20" shape="95.20,413.60 95.20,386.40"/>
        <lane id=":J10_1_2" index="2" speed="13.89" length="27.20" shape="98.40,413.60 98.40,386.40"/>
    </edge>
    <edge id=":J10_4" function="internal">
        <lane id=":J10_4_0" index="0" speed="10.36" length="5.01" shape="98.40,413.60 99.11,408.64"/>
    </edge>
    <edge id=":J10_20" function="internal">
        <lane id=":J10_20_0" index="0" speed="10.36" length="19.50" shape="99.11,408.64 99.35,406.95 102.20,402.20 106.95,399.35 113.60,398.40"/>
    </edge>
    <edge id=":J10_5" function="internal">
        <lane id=":J10_5_0" index="0" speed="6.51" length="9.03" shape="113.60,408.00 111.15,408.35 109.40,409.40 108.35,411.15 108.00,413.60"/>
    </edge>
    <edge id=":J10_6" function="internal">
        <lane id=":J10_6_0" index="0" speed="13.89" length="27.20" shape="113.60,408.00 86.40,408.00"/>
        <lane id=":J10_6_1" index="1" speed="13.89" length="27.20" shape="113.60,404.80 86.40,404.80"/>
        <lane id=":J10_6_2" index="2" speed="13.89" length="27.20" shape="113.60,401.60 86.40,401.60"/>
    </edge>
    <edge id=":J10_9" function="internal">
        <lane id=":J10_9_0" index="0" speed="10.36" length="5.01" shape="113.60,401.60 108.64,400.89"/>
    </edge>
    <edge id=":J10_21" function="internal">
        <lane id=":J10_21_0" index="0" speed="10.36" length="19.50" shape="108.64,400.89 106.95,400.65 102.20,397.80 99.35,393.05 98.40,386.40"/>
    </edge>
    <edge id=":J10_10" function="internal">
        <lane id=":J10_10_0" index="0" speed="6.51" length="9.03" shape="108.00,386.40 108.35,388.85 109.40,390.60 111.15,391.65 113.60,392.00"/>
    </edge>
    <edge id=":J10_11" function="internal">
        <lane id=":J10_11_0" index="0" speed="13.89" length="27.20" shape="108.00,386.40 108.00,413.60"/>
        <lane id=":J10_11_1" index="1" speed="13.89" length="27.20" shape="104.80,386.40 104.80,413.60"/>
        <lane id=":J10_11_2" index="2" speed="13.89" length="27.20" shape="101.60,386.40 101.60,413.60"/>
    </edge>
    <edge id=":J10_14" function="internal">
        <lane id=":J10_14_0" index="0" speed="10.36" length="5.01" shape="101.60,386.40 100.89,391.36"/>
    </edge>
    <edge id=":J10_22" function="internal">
        <lane id=":J10_22_0" index="0" speed="10.36" length="19.50" shape="100.89,391.36 100.65,393.05 97.80,397.80 93.05,400.65 86.40,401.60"/>
    </edge>
    <edge id=":J10_15" function="internal">
        <lane id=":J10_15_0" index="0" speed="6.51" length="9.03" shape="86.40,392.00 88.85,391.65 90.60,390.60 91.65,388.85 92.00,386.40"/>
    </edge>
    <edge id=":J10_16" function="internal">
        <lane id=":J10_16_0" index="0" speed="13.89" length="27.20" shape="86.40,392.00 113.60,392.00"/>
        <lane id=":J10_16_1" index="1" speed="13.89" length="27.20" shape="86.40,395.20 113.60,395.20"/>
        <lane id=":J10_16_2" index="2" speed="13.89" length="27.20" shape="86.40,398.40 113.60,398.40"/>
    </edge>
    <edge id=":J10_19" function="internal">
        <lane id=":J10_19_0" index="0" speed="10.36" length="5.01" shape="86.40,398.40 91.36,399.11"/>
    </edge>
    <edge id=":J10_23" function="internal">
        <lane id=":J10_23_0" index="0" speed="10.36" length="19.50" shape="91.36,399.11 93.05,399.35 97.80,402.20 100.65,406.95 101.60,413.60"/>
    </edge>
    <edge id=":J15_0" function="internal">
        <lane id=":J15_0_0" index="0" speed="6.51" length="9.03" shape="692.00,-286.40 691.65,-288.85 690.60,-290.60 688.85,-291.65 686.40,-292.00"/>
    </edge>
    <edge id=":J15_1" function="internal">
        <lane id=":J15_1_0" index="0" speed="13.89" length="27.20" shape="692.00,-286.40 692.00,-313.60"/>
        <lane id=":J15_1_1" index="1" speed="13.89" length="27.20" shape="695.20,-286.40 695.20,-313.60"/>
        <lane id=":J15_1_2" index="2" speed="13.89" length="27.20" shape="698.40,-286.40 698.40,-313.60"/>
    </edge>
    <edge id=":J15_4" function="internal">
        <lane id=":J15_4_0" index="0" speed="10.36" length="5.01" shape="698.40,-286.40 699.11,-291.36"/>
    </edge>
    <edge id=":J15_20" function="internal">
        <lane id=":J15_20_0" index="0" speed="10.36" length="19.50" shape="699.11,-291.36 699.35,-293.05 702.20,-297.80 706.95,-300.65 713.60,-301.60"/>
    </edge>
    <edge id=":J15_5" function="internal">
        <lane id=":J15_5_0" index="0" speed="6.51" length="9.03" shape="713.60,-292.00 711.15,-291.65 709.40,-290.60 708.35,-288.85 708.00,-286.40"/>
    </edge>
    <edge id=":J15_6" function="internal">
        <lane id=":J15_6_0" index="0" speed="13.89" length="27.20" shape="713.60,-292.00 686.40,-292.00"/>
        <lane id=":J15_6_1" index="1" speed="13.89" length="27.20" shape="713.60,-295.20 686.40,-295.20"/>
        <lane id=":J15_6_2" index="2" speed="13.89" length="27.20" shape="713.60,-298.40 686.40,-298.40"/>
    </edge>
    <edge id=":J15_9" function="internal">
        <lane id=":J15_9_0" index="0" speed="10.36" length="5.01" shape="713.60,-298.40 708.64,-299.11"/>
    </edge>
    <edge id=":J15_21" function="internal">
        <lane id=":J15_21_0" index="0" speed="10.36" length="19.50" shape="708.64,-299.11 706.95,-299.35 702.20,-302.20 699.35,-306.95 698.40,-313.60"/>
    </edge>
    <edge id=":J15_10" function="internal">
        <lane id=":J15_10_0" index="0" speed="6.51" length="9.03" shape="708.00,-313.60 708.35,-311.15 709.40,-309.40 711.15,-308.35 713.60,-308.00"/>
    </edge>
    <edge id=":J15_11" function="internal">
        <lane id=":J15_11_0" index="0" speed="13.89" length="27.20" shape="708.00,-313.60 708.00,-286.40"/>
        <lane id=":J15_11_1" index="1" speed="13.89" length="27.20" shape="704.80,-313.60 704.80,-286.40"/>
        <lane id=":J15_11_2" index="2" speed="13.89" length="27.20" shape="701.60,-313.60 701.60,-286.40"/>
    </edge>
    <edge id=":J15_14" function="internal">
        <lane id=":J15_14_0" index="0" speed="10.36" length="5.01" shape="701.60,-313.60 700.89,-308.64"/>
    </edge>
    <edge id=":J15_22" function="internal">
        <lane id=":J15_22_0" index="0" speed="10.36" length="19.50" shape="700.89,-308.64 700.65,-306.95 697.80,-302.20 693.05,-299.35 686.40,-298.40"/>
    </edge>
    <edge id=":J15_15" function="internal">
        <lane id=":J15_15_0" index="0" speed="6.51" length="9.03" shape="686.40,-308.00 688.85,-308.35 690.60,-309.40 691.65,-311.15 692.00,-313.60"/>
    </edge>
    <edge id=":J15_16" function="internal">
        <lane id=":J15_16_0" index="0" speed="13.89" length="27.20" shape="686.40,-308.00 713.60,-308.00"/>
        <lane id=":J15_16_1" index="1" speed="13.89" length="27.20" shape="686.40,-304.80 713.60,-304.80"/>
        <lane id=":J15_16_2" index="2" speed="13.89" length="27.20" shape="686.40,-301.60 713.60,-301.60"/>
    </edge>
    <edge id=":J15_19" function="internal">
        <lane id=":J15_19_0" index="0" speed="10.36" length="5.01" shape="686.40,-301.60 691.36,-300.89"/>
    </edge>
    <edge id=":J15_23" function="internal">
        <lane id=":J15_23_0" index="0" speed="10.36" length="19.50" shape="691.36,-300.89 693.05,-300.65 697.80,-297.80 700.65,-293.05 701.60,-286.40"/>
    </edge>
    <edge id=":J17_0" function="internal">
        <lane id=":J17_0_0" index="0" speed="6.51" length="9.03" shape="1292.00,-286.40 1291.65,-288.85 1290.60,-290.60 1288.85,-291.65 1286.40,-292.00"/>
    </edge>
    <edge id=":J17_1" function="internal">
        <lane id=":J17_1_0" index="0" speed="13.89" length="27.20" shape="1292.00,-286.40 1292.00,-313.60"/>
        <lane id=":J17_1_1" index="1" speed="13.89" length="27.20" shape="1295.20,-286.40 1295.20,-313.60"/>
        <lane id=":J17_1_2" index="2" speed="13.89" length="27.20" shape="1298.40,-286.40 1298.40,-313.60"/>
    </edge>
    <edge id=":J17_4" function="internal">
        <lane id=":J17_4_0" index="0" speed="10.36" length="5.01" shape="1298.40,-286.40 1299.11,-291.36"/>
    </edge>
    <edge id=":J17_5" function="internal">
        <lane id=":J17_5_0" index="0" speed="3.24" length="1.60" shape="1298.40,-286.40 1300.00,-286.40"/>
    </edge>
    <edge id=":J17_33" function="internal">
        <lane id=":J17_33_0" index="0" speed="10.36" length="19.50" shape="1299.11,-291.36 1299.35,-293.05 1302.20,-297.80 1306.95,-300.65 1313.60,-301.60"/>
    </edge>
    <edge id=":J17_34" function="internal">
        <lane id=":J17_34_0" index="0" speed="3.24" length="1.60" shape="1300.00,-286.40 1301.60,-286.40"/>
    </edge>
    <edge id=":J17_6" function="internal">
        <lane id=":J17_6_0" index="0" speed="6.51" length="9.03" shape="1313.60,-292.00 1311.15,-291.65 1309.40,-290.60 1308.35,-288.85 1308.00,-286.40"/>
    </edge>
    <edge id=":J17_7" function="internal">
        <lane id=":J17_7_0" index="0" speed="6.51" length="9.03" shape="1313.60,-292.00 1311.15,-291.65 1309.40,-290.60 1308.35,-288.85 1308.00,-286.40"/>
        <lane id=":J17_7_1" index="1" speed="8.00" length="14.19" shape="1313.60,-295.20 1309.75,-294.65 1307.00,-293.00 1305.35,-290.25 1304.80,-286.40"/>
    </edge>
    <edge id=":J17_9" function="internal">
        <lane id=":J17_9_0" index="0" speed="13.89" length="27.37" shape="1313.60,-295.20 1305.50,-294.70 1300.00,-293.60 1294.50,-292.50 1286.40,-292.00"/>
        <lane id=":J17_9_1" index="1" speed="13.89" length="27.37" shape="1313.60,-298.40 1305.50,-297.90 1300.00,-296.80 1294.50,-295.70 1286.40,-295.20"/>
        <lane id=":J17_9_2" index="2" speed="13.89" length="27.37" shape="1313.60,-298.40 1286.40,-298.40"/>
    </edge>
    <edge id=":J17_12" function="internal">
        <lane id=":J17_12_0" index="0" speed="10.36" length="6.91" shape="1313.60,-298.40 1306.95,-299.35 1306.78,-299.45"/>
    </edge>
    <edge id=":J17_35" function="internal">
        <lane id=":J17_35_0" index="0" speed="10.36" length="17.60" shape="1306.78,-299.45 1302.20,-302.20 1299.35,-306.95 1298.40,-313.60"/>
    </edge>
    <edge id=":J17_13" function="internal">
        <lane id=":J17_13_0" index="0" speed="6.51" length="9.03" shape="1308.00,-313.60 1308.35,-311.15 1309.40,-309.40 1311.15,-308.35 1313.60,-308.00"/>
    </edge>
    <edge id=":J17_14" function="internal">
        <lane id=":J17_14_0" index="0" speed="13.89" length="27.28" shape="1308.00,-313.60 1308.00,-286.40"/>
        <lane id=":J17_14_1" index="1" speed="13.89" length="27.28" shape="1304.80,-313.60 1304.80,-286.40"/>
        <lane id=":J17_14_2" index="2" speed="13.89" length="27.28" shape="1304.80,-313.60 1304.30,-305.50 1303.20,-300.00 1302.10,-294.50 1301.60,-286.40"/>
    </edge>
    <edge id=":J17_17" function="internal">
        <lane id=":J17_17_0" index="0" speed="13.89" length="27.28" shape="1304.80,-313.60 1305.30,-305.50 1306.40,-300.00 1307.50,-294.50 1308.00,-286.40"/>
        <lane id=":J17_17_1" index="1" speed="13.89" length="27.28" shape="1304.80,-313.60 1304.80,-286.40"/>
        <lane id=":J17_17_2" index="2" speed="13.89" length="27.28" shape="1301.60,-313.60 1301.60,-286.40"/>
    </edge>
    <edge id=":J17_20" function="internal">
        <lane id=":J17_20_0" index="0" speed="10.88" length="6.03" shape="1301.60,-313.60 1300.89,-307.62"/>
    </edge>
    <edge id=":J17_36" function="internal">
        <lane id=":J17_36_0" index="0" speed="10.88" length="21.12" shape="1300.89,-307.62 1300.65,-305.55 1297.80,-299.80 1293.05,-296.35 1286.40,-295.20"/>
    </edge>
    <edge id=":J17_21" function="internal">
        <lane id=":J17_21_0" index="0" speed="6.51" length="9.03" shape="1286.40,-308.00 1288.85,-308.35 1290.60,-309.40 1291.65,-311.15 1292.00,-313.60"/>
    </edge>
    <edge id=":J17_22" function="internal">
        <lane id=":J17_22_0" index="0" speed="13.89" length="27.45" shape="1286.40,-308.00 1294.50,-307.50 1300.00,-306.40 1305.50,-305.30 1313.60,-304.80"/>
        <lane id=":J17_22_1" index="1" speed="13.89" length="27.45" shape="1286.40,-304.80 1294.50,-304.30 1300.00,-303.20 1305.50,-302.10 1313.60,-301.60"/>
    </edge>
    <edge id=":J17_24" function="internal">
        <lane id=":J17_24_0" index="0" speed="10.88" length="6.03" shape="1286.40,-301.60 1292.38,-300.89"/>
    </edge>
    <edge id=":J17_25" function="internal">
        <lane id=":J17_25_0" index="0" speed="10.60" length="6.03" shape="1286.40,-301.60 1292.30,-300.36"/>
    </edge>
    <edge id=":J17_37" function="internal">
        <lane id=":J17_37_0" index="0" speed="10.88" length="21.12" shape="1292.38,-300.89 1294.45,-300.65 1300.20,-297.80 1303.65,-293.05 1304.80,-286.40"/>
    </edge>
    <edge id=":J17_38" function="internal">
        <lane id=":J17_38_0" index="0" speed="10.60" length="19.67" shape="1292.30,-300.36 1292.63,-300.29 1298.58,-296.85 1303.04,-291.98 1304.80,-286.40"/>
    </edge>
    <edge id=":J17_26" function="internal">
        <lane id=":J17_26_0" index="0" speed="7.33" length="11.73" shape="1286.40,-308.00 1290.25,-308.35 1293.00,-309.40 1294.65,-311.15 1295.20,-313.60"/>
    </edge>
    <edge id=":J17_27" function="internal">
        <lane id=":J17_27_0" index="0" speed="13.89" length="27.45" shape="1286.40,-308.00 1294.50,-307.50 1300.00,-306.40 1305.50,-305.30 1313.60,-304.80"/>
        <lane id=":J17_27_1" index="1" speed="13.89" length="27.45" shape="1286.40,-304.80 1294.50,-304.30 1300.00,-303.20 1305.50,-302.10 1313.60,-301.60"/>
    </edge>
    <edge id=":J17_29" function="internal">
        <lane id=":J17_29_0" index="0" speed="10.88" length="27.14" shape="1286.40,-304.80 1293.05,-303.65 1297.80,-300.20 1300.65,-294.45 1301.60,-286.40"/>
    </edge>
    <edge id=":J17_30" function="internal">
        <lane id=":J17_30_0" index="0" speed="11.36" length="29.67" shape="1286.40,-304.80 1294.45,-303.65 1300.20,-300.20 1303.65,-294.45 1304.80,-286.40"/>
        <lane id=":J17_30_1" index="1" speed="10.36" length="24.51" shape="1286.40,-301.60 1293.05,-300.65 1297.80,-297.80 1300.65,-293.05 1301.60,-286.40"/>
    </edge>
    <edge id=":J17_32" function="internal">
        <lane id=":J17_32_0" index="0" speed="3.24" length="3.20" shape="1286.40,-301.60 1286.40,-298.40"/>
    </edge>
    <edge id=":J18_0" function="internal">
        <lane id=":J18_0_0" index="0" speed="13.89" length="27.20" shape="692.00,413.60 692.00,386.40"/>
        <lane id=":J18_0_1" index="1" speed="13.89" length="27.20" shape="695.20,413.60 695.20,386.40"/>
        <lane id=":J18_0_2" index="2" speed="13.89" length="27.20" shape="698.40,413.60 698.40,386.40"/>
    </edge>
    <edge id=":J18_3" function="internal">
        <lane id=":J18_3_0" index="0" speed="10.36" length="5.01" shape="698.40,413.60 699.11,408.64"/>
    </edge>
    <edge id=":J18_16" function="internal">
        <lane id=":J18_16_0" index="0" speed="10.36" length="19.50" shape="699.11,408.64 699.35,406.95 702.20,402.20 706.95,399.35 713.60,398.40"/>
    </edge>
    <edge id=":J18_4" function="internal">
        <lane id=":J18_4_0" index="0" speed="6.51" length="9.03" shape="713.60,408.00 711.15,408.35 709.40,409.40 708.35,411.15 708.00,413.60"/>
    </edge>
    <edge id=":J18_5" function="internal">
        <lane id=":J18_5_0" index="0" speed="11.36" length="29.67" shape="713.60,404.80 705.55,403.65 699.80,400.20 696.35,394.45 695.20,386.40"/>
        <lane id=":J18_5_1" index="1" speed="10.36" length="24.51" shape="713.60,401.60 706.95,400.65 702.20,397.80 699.35,393.05 698.40,386.40"/>
    </edge>
    <edge id=":J18_7" function="internal">
        <lane id=":J18_7_0" index="0" speed="6.51" length="9.03" shape="708.00,386.40 708.35,388.85 709.40,390.60 711.15,391.65 713.60,392.00"/>
    </edge>
    <edge id=":J18_8" function="internal">
        <lane id=":J18_8_0" index="0" speed="13.89" length="27.20" shape="708.00,386.40 708.00,413.60"/>
        <lane id=":J18_8_1" index="1" speed="13.89" length="27.20" shape="704.80,386.40 704.80,413.60"/>
        <lane id=":J18_8_2" index="2" speed="13.89" length="27.20" shape="701.60,386.40 701.60,413.60"/>
    </edge>
    <edge id=":J18_11" function="internal">
        <lane id=":J18_11_0" index="0" speed="6.51" length="9.03" shape="686.40,392.00 688.85,391.65 690.60,390.60 691.65,388.85 692.00,386.40"/>
    </edge>
    <edge id=":J18_12" function="internal">
        <lane id=":J18_12_0" index="0" speed="13.89" length="27.20" shape="686.40,392.00 713.60,392.00"/>
        <lane id=":J18_12_1" index="1" speed="13.89" length="27.20" shape="686.40,395.20 713.60,395.20"/>
        <lane id=":J18_12_2" index="2" speed="13.89" length="27.20" shape="686.40,398.40 713.60,398.40"/>
    </edge>
    <edge id=":J18_15" function="internal">
        <lane id=":J18_15_0" index="0" speed="10.36" length="24.51" shape="686.40,398.40 693.05,399.35 697.80,402.20 700.65,406.95 701.60,413.60"/>
    </edge>
    <edge id=":J21_0" function="internal">
        <lane id=":J21_0_0" index="0" speed="6.51" length="9.03" shape="1292.00,413.60 1291.65,411.15 1290.60,409.40 1288.85,408.35 1286.40,408.00"/>
    </edge>
    <edge id=":J21_1" function="internal">
        <lane id=":J21_1_0" index="0" speed="6.51" length="9.03" shape="1292.00,413.60 1291.65,411.15 1290.60,409.40 1288.85,408.35 1286.40,408.00"/>
    </edge>
    <edge id=":J21_2" function="internal">
        <lane id=":J21_2_0" index="0" speed="13.89" length="27.20" shape="1292.00,413.60 1292.00,386.40"/>
        <lane id=":J21_2_1" index="1" speed="13.89" length="27.20" shape="1295.20,413.60 1295.20,386.40"/>
        <lane id=":J21_2_2" index="2" speed="13.89" length="27.20" shape="1298.40,413.60 1298.40,386.40"/>
    </edge>
    <edge id=":J21_5" function="internal">
        <lane id=":J21_5_0" index="0" speed="10.60" length="21.99" shape="1298.40,413.60 1299.71,407.37 1303.15,401.42 1308.02,396.96 1310.07,396.31"/>
        <lane id=":J21_5_1" index="1" speed="10.36" length="24.51" shape="1298.40,413.60 1299.35,406.95 1302.20,402.20 1306.95,399.35 1313.60,398.40"/>
    </edge>
    <edge id=":J21_23" function="internal">
        <lane id=":J21_23_0" index="0" speed="10.60" length="3.70" shape="1310.07,396.31 1313.60,395.20"/>
    </edge>
    <edge id=":J21_7" function="internal">
        <lane id=":J21_7_0" index="0" speed="13.89" length="27.61" shape="1313.60,408.00 1286.40,408.00"/>
        <lane id=":J21_7_1" index="1" speed="13.89" length="27.61" shape="1313.60,408.00 1305.50,407.50 1300.00,406.40 1294.50,405.30 1286.40,404.80"/>
        <lane id=":J21_7_2" index="2" speed="13.89" length="27.61" shape="1313.60,408.00 1305.42,407.00 1300.00,404.80 1294.58,402.60 1286.40,401.60"/>
    </edge>
    <edge id=":J21_10" function="internal">
        <lane id=":J21_10_0" index="0" speed="13.89" length="27.37" shape="1313.60,404.80 1305.50,405.30 1300.00,406.40 1294.50,407.50 1286.40,408.00"/>
        <lane id=":J21_10_1" index="1" speed="13.89" length="27.37" shape="1313.60,404.80 1286.40,404.80"/>
        <lane id=":J21_10_2" index="2" speed="13.89" length="27.37" shape="1313.60,404.80 1305.50,404.30 1300.00,403.20 1294.50,402.10 1286.40,401.60"/>
    </edge>
    <edge id=":J21_13" function="internal">
        <lane id=":J21_13_0" index="0" speed="10.36" length="5.01" shape="1313.60,401.60 1308.64,400.89"/>
    </edge>
    <edge id=":J21_24" function="internal">
        <lane id=":J21_24_0" index="0" speed="10.36" length="19.50" shape="1308.64,400.89 1306.95,400.65 1302.20,397.80 1299.35,393.05 1298.40,386.40"/>
    </edge>
    <edge id=":J21_14" function="internal">
        <lane id=":J21_14_0" index="0" speed="6.51" length="9.03" shape="1308.00,386.40 1308.35,388.85 1309.40,390.60 1311.15,391.65 1313.60,392.00"/>
        <lane id=":J21_14_1" index="1" speed="8.00" length="14.19" shape="1304.80,386.40 1305.35,390.25 1307.00,393.00 1309.75,394.65 1313.60,395.20"/>
    </edge>
    <edge id=":J21_16" function="internal">
        <lane id=":J21_16_0" index="0" speed="11.36" length="29.67" shape="1304.80,386.40 1303.65,394.45 1300.20,400.20 1294.45,403.65 1286.40,404.80"/>
    </edge>
    <edge id=":J21_17" function="internal">
        <lane id=":J21_17_0" index="0" speed="10.10" length="23.22" shape="1301.60,386.40 1300.23,391.80 1296.69,396.69 1291.80,400.23 1286.40,401.60"/>
    </edge>
    <edge id=":J21_18" function="internal">
        <lane id=":J21_18_0" index="0" speed="6.51" length="9.03" shape="1286.40,392.00 1288.85,391.65 1290.60,390.60 1291.65,388.85 1292.00,386.40"/>
    </edge>
    <edge id=":J21_19" function="internal">
        <lane id=":J21_19_0" index="0" speed="13.89" length="27.20" shape="1286.40,392.00 1313.60,392.00"/>
        <lane id=":J21_19_1" index="1" speed="13.89" length="27.20" shape="1286.40,395.20 1313.60,395.20"/>
        <lane id=":J21_19_2" index="2" speed="13.89" length="27.20" shape="1286.40,398.40 1313.60,398.40"/>
    </edge>
    <edge id=":J21_22" function="internal">
        <lane id=":J21_22_0" index="0" speed="3.24" length="1.65" shape="1286.40,398.40 1286.40,400.05"/>
    </edge>
    <edge id=":J21_25" function="internal">
        <lane id=":J21_25_0" index="0" speed="3.24" length="1.55" shape="1286.40,400.05 1286.40,401.60"/>
    </edge>
    <edge id=":J9_0" function="internal">
        <lane id=":J9_0_0" index="0" speed="6.51" length="9.03" shape="92.00,-286.40 91.65,-288.85 90.60,-290.60 88.85,-291.65 86.40,-292.00"/>
    </edge>
    <edge id=":J9_1" function="internal">
        <lane id=":J9_1_0" index="0" speed="13.89" length="27.20" shape="92.00,-286.40 92.00,-313.60"/>
        <lane id=":J9_1_1" index="1" speed="13.89" length="27.20" shape="95.20,-286.40 95.20,-313.60"/>
        <lane id=":J9_1_2" index="2" speed="13.89" length="27.20" shape="98.40,-286.40 98.40,-313.60"/>
    </edge>
    <edge id=":J9_4" function="internal">
        <lane id=":J9_4_0" index="0" speed="10.88" length="6.03" shape="98.40,-286.40 99.11,-292.38"/>
    </edge>
    <edge id=":J9_5" function="internal">
        <lane id=":J9_5_0" index="0" speed="10.36" length="5.01" shape="98.40,-286.40 99.11,-291.36"/>
    </edge>
    <edge id=":J9_27" function="internal">
        <lane id=":J9_27_0" index="0" speed="10.88" length="21.12" shape="99.11,-292.38 99.35,-294.45 102.20,-300.20 106.95,-303.65 113.60,-304.80"/>
    </edge>
    <edge id=":J9_28" function="internal">
        <lane id=":J9_28_0" index="0" speed="10.36" length="19.50" shape="99.11,-291.36 99.35,-293.05 102.20,-297.80 106.95,-300.65 113.60,-301.60"/>
    </edge>
    <edge id=":J9_6" function="internal">
        <lane id=":J9_6_0" index="0" speed="6.51" length="9.03" shape="113.60,-292.00 111.15,-291.65 109.40,-290.60 108.35,-288.85 108.00,-286.40"/>
    </edge>
    <edge id=":J9_7" function="internal">
        <lane id=":J9_7_0" index="0" speed="13.89" length="27.28" shape="113.60,-292.00 86.40,-292.00"/>
        <lane id=":J9_7_1" index="1" speed="13.89" length="27.28" shape="113.60,-295.20 86.40,-295.20"/>
        <lane id=":J9_7_2" index="2" speed="13.89" length="27.28" shape="113.60,-295.20 105.50,-295.70 100.00,-296.80 94.50,-297.90 86.40,-298.40"/>
    </edge>
    <edge id=":J9_10" function="internal">
        <lane id=":J9_10_0" index="0" speed="11.36" length="15.60" shape="113.60,-295.20 105.55,-296.35 99.80,-299.80 99.41,-300.46"/>
        <lane id=":J9_10_1" index="1" speed="10.36" length="6.91" shape="113.60,-298.40 106.95,-299.35 106.78,-299.45"/>
    </edge>
    <edge id=":J9_12" function="internal">
        <lane id=":J9_12_0" index="0" speed="3.24" length="1.65" shape="113.60,-298.40 113.60,-300.05"/>
    </edge>
    <edge id=":J9_29" function="internal">
        <lane id=":J9_29_0" index="0" speed="11.36" length="14.07" shape="99.41,-300.46 96.35,-305.55 95.20,-313.60"/>
    </edge>
    <edge id=":J9_30" function="internal">
        <lane id=":J9_30_0" index="0" speed="10.36" length="17.60" shape="106.78,-299.45 102.20,-302.20 99.35,-306.95 98.40,-313.60"/>
    </edge>
    <edge id=":J9_31" function="internal">
        <lane id=":J9_31_0" index="0" speed="3.24" length="1.55" shape="113.60,-300.05 113.60,-301.60"/>
    </edge>
    <edge id=":J9_13" function="internal">
        <lane id=":J9_13_0" index="0" speed="6.51" length="9.03" shape="108.00,-313.60 108.35,-311.15 109.40,-309.40 111.15,-308.35 113.60,-308.00"/>
    </edge>
    <edge id=":J9_14" function="internal">
        <lane id=":J9_14_0" index="0" speed="6.51" length="9.03" shape="108.00,-313.60 108.35,-311.15 109.40,-309.40 111.15,-308.35 113.60,-308.00"/>
    </edge>
    <edge id=":J9_15" function="internal">
        <lane id=":J9_15_0" index="0" speed="13.89" length="27.20" shape="108.00,-313.60 108.00,-286.40"/>
        <lane id=":J9_15_1" index="1" speed="13.89" length="27.20" shape="104.80,-313.60 104.80,-286.40"/>
        <lane id=":J9_15_2" index="2" speed="13.89" length="27.20" shape="101.60,-313.60 101.60,-286.40"/>
    </edge>
    <edge id=":J9_18" function="internal">
        <lane id=":J9_18_0" index="0" speed="10.36" length="5.01" shape="101.60,-313.60 100.89,-308.64"/>
    </edge>
    <edge id=":J9_32" function="internal">
        <lane id=":J9_32_0" index="0" speed="10.36" length="19.50" shape="100.89,-308.64 100.65,-306.95 97.80,-302.20 93.05,-299.35 86.40,-298.40"/>
    </edge>
    <edge id=":J9_19" function="internal">
        <lane id=":J9_19_0" index="0" speed="6.51" length="9.03" shape="86.40,-308.00 88.85,-308.35 90.60,-309.40 91.65,-311.15 92.00,-313.60"/>
    </edge>
    <edge id=":J9_20" function="internal">
        <lane id=":J9_20_0" index="0" speed="13.89" length="27.28" shape="86.40,-308.00 113.60,-308.00"/>
        <lane id=":J9_20_1" index="1" speed="13.89" length="27.28" shape="86.40,-304.80 113.60,-304.80"/>
        <lane id=":J9_20_2" index="2" speed="13.89" length="27.28" shape="86.40,-304.80 94.50,-304.30 100.00,-303.20 105.50,-302.10 113.60,-301.60"/>
    </edge>
    <edge id=":J9_23" function="internal">
        <lane id=":J9_23_0" index="0" speed="13.89" length="27.37" shape="86.40,-304.80 94.50,-305.30 100.00,-306.40 105.50,-307.50 113.60,-308.00"/>
        <lane id=":J9_23_1" index="1" speed="13.89" length="27.37" shape="86.40,-304.80 113.60,-304.80"/>
        <lane id=":J9_23_2" index="2" speed="13.89" length="27.37" shape="86.40,-304.80 94.50,-304.30 100.00,-303.20 105.50,-302.10 113.60,-301.60"/>
    </edge>
    <edge id=":J9_26" function="internal">
        <lane id=":J9_26_0" index="0" speed="10.36" length="6.91" shape="86.40,-301.60 93.05,-300.65 93.22,-300.55"/>
    </edge>
    <edge id=":J9_33" function="internal">
        <lane id=":J9_33_0" index="0" speed="10.36" length="17.60" shape="93.22,-300.55 97.80,-297.80 100.65,-293.05 101.60,-286.40"/>
    </edge>

    <edge id="-E10" from="J14" to="J9" priority="-1">
        <lane id="-E10_0" index="0" speed="13.89" length="286.40" shape="108.00,-600.00 108.00,-313.60"/>
        <lane id="-E10_1" index="1" speed="13.89" length="286.40" shape="104.80,-600.00 104.80,-313.60"/>
        <lane id="-E10_2" index="2" speed="13.89" length="286.40" shape="101.60,-600.00 101.60,-313.60"/>
    </edge>
    <edge id="-E11" from="J15" to="J9" priority="-1">
        <lane id="-E11_0" index="0" speed="13.89" length="572.80" shape="686.40,-292.00 113.60,-292.00"/>
        <lane id="-E11_1" index="1" speed="13.89" length="572.80" shape="686.40,-295.20 113.60,-295.20"/>
        <lane id="-E11_2" index="2" speed="13.89" length="572.80" shape="686.40,-298.40 113.60,-298.40"/>
    </edge>
    <edge id="-E12" from="J16" to="J15" priority="-1">
        <lane id="-E12_0" index="0" speed="13.89" length="286.40" shape="708.00,-600.00 708.00,-313.60"/>
        <lane id="-E12_1" index="1" speed="13.89" length="286.40" shape="704.80,-600.00 704.80,-313.60"/>
        <lane id="-E12_2" index="2" speed="13.89" length="286.40" shape="701.60,-600.00 701.60,-313.60"/>
    </edge>
    <edge id="-E14" from="J15" to="J17" priority="-1">
        <lane id="-E14_0" index="0" speed="13.89" length="572.80" shape="713.60,-308.00 1286.40,-308.00"/>
        <lane id="-E14_1" index="1" speed="13.89" length="572.80" shape="713.60,-304.80 1286.40,-304.80"/>
        <lane id="-E14_2" index="2" speed="13.89" length="572.80" shape="713.60,-301.60 1286.40,-301.60"/>
    </edge>
    <edge id="-E15" from="J18" to="J15" priority="-1">
        <lane id="-E15_0" index="0" speed="13.89" length="672.80" shape="692.00,386.40 692.00,-286.40"/>